Questionable use of curly braces in "bbotactrl nbota 0  v=if(v(nmod)>{{duty}}*v(ncar),{{vgate}+v(out+)},0)"
    Error: undefined symbol in: "(vgate)+[v](out+)"
Questionable use of curly braces in "bbotbctrl nbotb 0  v=if(v(nmodneg)<{{duty}}*v(ncar),{{vgate}+v(out-)},0)"
    Error: undefined symbol in: "(vgate)+[v](out-)"
Circuit: * F:\Studia\2stp\3SEM\MOC_CZE\HW\TEMiWCZ_BLDC_HW\spice\frontend.asc

WARNING: Specified period is not longer than the sum of Trise, Tfall, and Ton for v5.  Increasing period to 3.2e-005
WARNING: Specified period is not longer than the sum of Trise, Tfall, and Ton for v8.  Increasing period to 3.2e-005
WARNING: Node NC_02 is floating.
WARNING: Node NC_04 is floating.
WARNING: Node NC_06 is floating.
WARNING: Node NC_08 is floating.
WARNING: Node NC_16 is floating.

WARNING: Less than two connections to node TEST.  This node is used by V2.
WARNING: Less than two connections to node NC_01.  This node is used by R9.
WARNING: Less than two connections to node NC_02.  This node is used by C1.
WARNING: Less than two connections to node NC_03.  This node is used by R10.
WARNING: Less than two connections to node NC_04.  This node is used by C2.
WARNING: Less than two connections to node NC_05.  This node is used by R11.
WARNING: Less than two connections to node NC_06.  This node is used by C3.
WARNING: Less than two connections to node NC_07.  This node is used by R12.
WARNING: Less than two connections to node NC_08.  This node is used by C4.
WARNING: Less than two connections to node TESTT.  This node is used by V3.
WARNING: Less than two connections to node NC_15.  This node is used by D4.
WARNING: Less than two connections to node NC_16.  This node is used by D4.
WARNING: Less than two connections to node NTOPA.  This node is used by BTOPACTRL.
WARNING: Less than two connections to node NBOTA.  This node is used by BBOTACTRL.
WARNING: Less than two connections to node NTOPB.  This node is used by BTOPBCTRL.
WARNING: Less than two connections to node NBOTB.  This node is used by BBOTBCTRL.
Direct Newton iteration for .op point succeeded.
Heightened Def Con from 7.97922e-006 +to 7.97923e-006
Heightened Def Con from 7.97923e-006 to 7.97924e-006
Heightened Def Con from 7.97924e-006 +to 7.97924e-006
Heightened Def Con from 7.97924e-006 to 7.97925e-006
Heightened Def Con from 7.97925e-006 to 7.97927e-006
Heightened Def Con from 7.97937e-006 to 7.97938e-006
Heightened Def Con from 7.97938e-006 to 7.9794e-006
Heightened Def Con from 7.97946e-006 to 7.97947e-006
Heightened Def Con from 7.97947e-006 to 7.97949e-006
Heightened Def Con from 7.97971e-006 +to 7.97971e-006
Heightened Def Con from 7.97971e-006 to 7.97972e-006
Heightened Def Con from 7.97973e-006 to 7.97975e-006
Heightened Def Con from 7.97975e-006 to 7.97975e-006
Heightened Def Con from 7.97975e-006 to 7.97977e-006
Heightened Def Con from 7.97977e-006 to 7.97978e-006
Heightened Def Con from 7.97978e-006 to 7.9798e-006
Heightened Def Con from 7.97983e-006 to 7.97996e-006
Heightened Def Con from 8.02015e-006 to 8.0203e-006
Heightened Def Con from 2.39397e-005 to 2.39399e-005
Heightened Def Con from 2.5e-005 to 2.5e-005
Heightened Def Con from 3.98997e-005 to 3.98999e-005
Heightened Def Con from 4.01008e-005 to 4.01009e-005
Heightened Def Con from 5.58596e-005 to 5.58597e-005
Heightened Def Con from 7.18195e-005 to 7.18197e-005
Heightened Def Con from 7.21814e-005 to 7.21815e-005
Heightened Def Con from 0.000103739 to 0.000103739
Heightened Def Con from 0.000104262 to 0.000104262
Heightened Def Con from 0.000119699 to 0.000119699
Heightened Def Con from 0.000120302 to 0.000120306
Heightened Def Con from 0.000135659 to 0.000135659
Heightened Def Con from 0.000136343 to 0.000136343
Heightened Def Con from 0.000151619 to 0.000151619
Heightened Def Con from 0.000152383 to 0.000152387
Heightened Def Con from 0.000167579 to 0.000167579
Heightened Def Con from 0.000168423 to 0.000168423
Heightened Def Con from 0.000168423 to 0.000168423
Heightened Def Con from 0.000175 to 0.000175
Heightened Def Con from 0.000183539 to 0.000183539
Heightened Def Con from 0.000199499 to 0.000199499
Heightened Def Con from 0.000200504 to 0.000200504
Heightened Def Con from 0.000215459 to 0.000215459
Heightened Def Con from 0.000216544 to 0.000216548
Heightened Def Con from 0.000231419 to 0.000231419
Heightened Def Con from 0.000232584 to 0.000232584
Heightened Def Con from 0.000247379 to 0.000247379
Heightened Def Con from 0.00025 to 0.00025
Heightened Def Con from 0.00025 +to 0.00025
Heightened Def Con from 0.00025 to 0.000250002
Heightened Def Con from 0.000263339 to 0.000263339
Heightened Def Con from 0.000264664 to 0.000264665
Heightened Def Con from 0.000279299 to 0.000279299
Heightened Def Con from 0.000295259 to 0.000295259
Heightened Def Con from 0.000296745 to 0.000296745
Heightened Def Con from 0.000311219 to 0.000311219
Heightened Def Con from 0.000312785 to 0.000312789
Heightened Def Con from 0.000327179 to 0.000327179
Heightened Def Con from 0.000328825 to 0.000328825
Heightened Def Con from 0.000328825 to 0.000328825
Heightened Def Con from 0.000343139 to 0.000343139
Heightened Def Con from 0.000344865 to 0.000344869
Heightened Def Con from 0.000359099 to 0.0003591
Heightened Def Con from 0.000360905 to 0.000360905
Heightened Def Con from 0.00037506 to 0.00037506
Heightened Def Con from 0.000376945 to 0.000376949
Heightened Def Con from 0.00039102 to 0.00039102
Heightened Def Con from 0.000392983 to 0.000392985
Heightened Def Con from 0.000392985 to 0.000392985
Heightened Def Con from 0.0004 to 0.0004
Heightened Def Con from 0.00040698 to 0.00040698
Heightened Def Con from 0.000409025 to 0.000409029
Heightened Def Con from 0.00042294 to 0.00042294
Heightened Def Con from 0.000425064 to 0.000425065
Heightened Def Con from 0.000425065 to 0.000425065
Heightened Def Con from 0.0004389 to 0.000438901
Heightened Def Con from 0.000441105 to 0.000441109
Heightened Def Con from 0.000454861 to 0.000454861
Heightened Def Con from 0.000457145 to 0.000457145
Heightened Def Con from 0.000470821 to 0.000470821
Heightened Def Con from 0.000473185 to 0.000473189
Heightened Def Con from 0.000486781 to 0.000486781
Heightened Def Con from 0.000489225 to 0.000489225
Heightened Def Con from 0.0005 to 0.000500002
Heightened Def Con from 0.000502742 to 0.000502742
Heightened Def Con from 0.000505265 to 0.000505269
Heightened Def Con from 0.000518702 to 0.000518702
Heightened Def Con from 0.000521304 to 0.000521304
Heightened Def Con from 0.000534663 to 0.000534663
Heightened Def Con from 0.000550623 to 0.000550623
Heightened Def Con from 0.000553384 to 0.000553389
Heightened Def Con from 0.000566584 to 0.000566584
Heightened Def Con from 0.000569423 to 0.000569427
Heightened Def Con from 0.000582544 to 0.000582544
Heightened Def Con from 0.000585462 to 0.000585463
Heightened Def Con from 0.000585463 to 0.000585463
Heightened Def Con from 0.000598505 to 0.000598505
Heightened Def Con from 0.000601503 to 0.000601507
Heightened Def Con from 0.000614465 to 0.000614465
Heightened Def Con from 0.000617542 to 0.000617542
Heightened Def Con from 0.000630426 to 0.000630426
Heightened Def Con from 0.000633582 to 0.000633586
Heightened Def Con from 0.000646387 to 0.000646387
Heightened Def Con from 0.000649621 to 0.000649621
Heightened Def Con from 0.000662347 to 0.000662347
Heightened Def Con from 0.000678308 to 0.000678308
Heightened Def Con from 0.0006817 to 0.0006817
Heightened Def Con from 0.000694269 to 0.000694269
Heightened Def Con from 0.00069774 to 0.000697744
Heightened Def Con from 0.00071023 to 0.00071023
Heightened Def Con from 0.000713779 to 0.000713779
Heightened Def Con from 0.000726191 to 0.000726191
Heightened Def Con from 0.000742152 to 0.000742152
Heightened Def Con from 0.000745857 to 0.000745857
Heightened Def Con from 0.000745857 to 0.000745857
Heightened Def Con from 0.00075 to 0.000750002
Heightened Def Con from 0.000758113 to 0.000758113
Heightened Def Con from 0.000761897 to 0.000761901
Heightened Def Con from 0.000774074 to 0.000774074
Heightened Def Con from 0.000777936 to 0.000777936
Heightened Def Con from 0.000790035 to 0.000790035
Heightened Def Con from 0.000805996 to 0.000805996
Heightened Def Con from 0.000810014 to 0.000810014
Heightened Def Con from 0.000821957 to 0.000821957
Heightened Def Con from 0.000826053 to 0.000826057
Heightened Def Con from 0.000837918 to 0.000837918
Heightened Def Con from 0.000842092 to 0.000842092
Heightened Def Con from 0.00085388 to 0.00085388
Heightened Def Con from 0.000858131 to 0.000858135
Heightened Def Con from 0.000869841 to 0.000869841
Heightened Def Con from 0.000874169 to 0.000874169
Heightened Def Con from 0.00087417 to 0.00087417
Heightened Def Con from 0.00087517 to 0.000875177
Heightened Def Con from 0.000885802 to 0.000885802
Heightened Def Con from 0.000890208 to 0.000890212
Heightened Def Con from 0.000901764 to 0.000901764
Heightened Def Con from 0.000906247 to 0.000906247
Heightened Def Con from 0.000917725 to 0.000917725
Heightened Def Con from 0.000922286 to 0.00092229
Heightened Def Con from 0.000933687 to 0.000933687
Heightened Def Con from 0.000938324 to 0.000938324
Heightened Def Con from 0.000949648 to 0.000949648
Heightened Def Con from 0.000949649 to 0.000949649
Heightened Def Con from 0.000954363 to 0.000954367
Heightened Def Con from 0.00096561 to 0.00096561
Heightened Def Con from 0.000970401 to 0.000970401
Heightened Def Con from 0.000981572 to 0.000981572
Heightened Def Con from 0.00098644 to 0.000986444
Heightened Def Con from 0.000997534 to 0.000997534
Heightened Def Con from 0.000999803 to 0.000999806
Heightened Def Con from 0.00100248 to 0.00100248
Heightened Def Con from 0.0010135 to 0.0010135
Heightened Def Con from 0.00101852 to 0.00101852
Heightened Def Con from 0.00102946 to 0.00102946
Heightened Def Con from 0.00103455 to 0.00103455
Heightened Def Con from 0.00103455 to 0.00103455
Heightened Def Con from 0.00104542 to 0.00104542
Heightened Def Con from 0.00105059 to 0.0010506
Heightened Def Con from 0.00106138 to 0.00106138
Heightened Def Con from 0.00106663 to 0.00106663
Heightened Def Con from 0.00106663 to 0.00106663
Heightened Def Con from 0.00107734 to 0.00107734
Heightened Def Con from 0.00107834 to 0.00107835
Heightened Def Con from 0.00108267 to 0.00108267
Heightened Def Con from 0.00109331 to 0.00109331
Heightened Def Con from 0.00109871 to 0.00109871
Heightened Def Con from 0.00110927 to 0.00110927
Heightened Def Con from 0.00111474 to 0.00111475
Heightened Def Con from 0.00112523 to 0.00112523
Heightened Def Con from 0.00113078 to 0.00113078
Heightened Def Con from 0.00114119 to 0.00114119
Heightened Def Con from 0.00115716 to 0.00115716
Heightened Def Con from 0.00116286 to 0.00116286
Heightened Def Con from 0.00116286 to 0.00116286
Heightened Def Con from 0.00117312 to 0.00117312
Heightened Def Con from 0.0011789 to 0.0011789
Heightened Def Con from 0.00118908 to 0.00118908
Heightened Def Con from 0.00119493 to 0.00119493
Heightened Def Con from 0.00120504 to 0.00120504
Heightened Def Con from 0.00121097 to 0.00121097
Heightened Def Con from 0.00121197 to 0.00121198
Heightened Def Con from 0.00122101 to 0.00122101
Heightened Def Con from 0.00122701 to 0.00122701
Heightened Def Con from 0.00123697 to 0.00123697
Heightened Def Con from 0.00125 to 0.00125
Heightened Def Con from 0.00125 to 0.00125
Heightened Def Con from 0.00125293 to 0.00125293
Heightened Def Con from 0.00125908 to 0.00125908
Heightened Def Con from 0.00125908 to 0.00125908
Heightened Def Con from 0.00126008 to 0.00126009
Heightened Def Con from 0.00126889 to 0.00126889
Heightened Def Con from 0.00127512 to 0.00127512
Heightened Def Con from 0.00127612 to 0.00127613
Heightened Def Con from 0.00128486 to 0.00128486
Heightened Def Con from 0.00129116 to 0.00129116
Heightened Def Con from 0.00129116 to 0.00129116
Heightened Def Con from 0.00129116 to 0.00129116
Heightened Def Con from 0.00130082 to 0.00130082
Heightened Def Con from 0.00130182 to 0.00130183
Heightened Def Con from 0.00130719 to 0.0013072
Heightened Def Con from 0.0013082 to 0.0013082
Heightened Def Con from 0.00131678 to 0.00131678
Heightened Def Con from 0.00132323 to 0.00132323
Heightened Def Con from 0.00132323 to 0.00132323
Heightened Def Con from 0.00133275 to 0.00133275
Heightened Def Con from 0.00133927 to 0.00133927
Heightened Def Con from 0.00134871 to 0.00134871
Heightened Def Con from 0.0013553 to 0.0013553
Heightened Def Con from 0.0013553 to 0.0013553
Heightened Def Con from 0.00136467 to 0.00136467
Heightened Def Con from 0.00137134 to 0.00137134
Heightened Def Con from 0.00138064 to 0.00138064
Heightened Def Con from 0.00138738 to 0.00138738
Heightened Def Con from 0.0013966 to 0.0013966
Heightened Def Con from 0.00140341 to 0.00140342
Heightened Def Con from 0.00141257 to 0.00141257
Heightened Def Con from 0.00141945 to 0.00141945
Heightened Def Con from 0.00142853 to 0.00142853
Heightened Def Con from 0.00143549 to 0.00143549
Heightened Def Con from 0.00144449 to 0.00144449
Heightened Def Con from 0.00145152 to 0.00145152
Heightened Def Con from 0.00146046 to 0.00146046
Heightened Def Con from 0.00146756 to 0.00146756
Heightened Def Con from 0.00147642 to 0.00147642
Heightened Def Con from 0.0014836 to 0.0014836
Heightened Def Con from 0.0014846 to 0.0014846
Heightened Def Con from 0.00149239 to 0.00149239
Heightened Def Con from 0.00149963 to 0.00149963
Heightened Def Con from 0.00149993 to 0.00149994
Heightened Def Con from 0.0015 to 0.0015
Heightened Def Con from 0.00150835 to 0.00150835
Heightened Def Con from 0.00151567 to 0.00151567
Heightened Def Con from 0.00151667 to 0.00151667
Heightened Def Con from 0.00152431 to 0.00152431
Heightened Def Con from 0.0015317 to 0.00153171
Heightened Def Con from 0.00154028 to 0.00154028
Heightened Def Con from 0.00154128 to 0.00154129
Heightened Def Con from 0.00154774 to 0.00154774
Heightened Def Con from 0.00154774 to 0.00154774
Heightened Def Con from 0.00154774 to 0.00154774
Heightened Def Con from 0.00154774 to 0.00154774
Heightened Def Con from 0.00155624 to 0.00155624
Heightened Def Con from 0.00155724 to 0.00155725
Heightened Def Con from 0.00156377 to 0.00156378
Heightened Def Con from 0.00156478 to 0.00156478
Heightened Def Con from 0.00157221 to 0.00157221
Heightened Def Con from 0.00157321 to 0.00157322
Heightened Def Con from 0.00157981 to 0.00157981
Heightened Def Con from 0.00157981 to 0.00157981
Heightened Def Con from 0.00158817 to 0.00158817
Heightened Def Con from 0.00159996 to 0.00159996
Heightened Def Con from 0.00160414 to 0.00160414
Heightened Def Con from 0.00160514 to 0.00160515
Heightened Def Con from 0.00161188 to 0.00161188
Heightened Def Con from 0.0016201 to 0.0016201
Heightened Def Con from 0.00162792 to 0.00162792
Heightened Def Con from 0.00162892 to 0.00162892
Heightened Def Con from 0.00163607 to 0.00163607
Heightened Def Con from 0.00163607 to 0.00163607
Heightened Def Con from 0.00163707 to 0.00163708
Heightened Def Con from 0.00164395 to 0.00164395
Heightened Def Con from 0.00164395 to 0.00164395
Heightened Def Con from 0.00164395 to 0.00164395
Heightened Def Con from 0.00164395 to 0.00164395
Heightened Def Con from 0.00165203 to 0.00165203
Heightened Def Con from 0.00165999 to 0.00165999
Heightened Def Con from 0.00166099 to 0.00166099
Heightened Def Con from 0.001668 to 0.001668
Heightened Def Con from 0.001669 to 0.00166901
Heightened Def Con from 0.00167602 to 0.00167602
Heightened Def Con from 0.00168396 to 0.00168396
Heightened Def Con from 0.00169205 to 0.00169206
Heightened Def Con from 0.00169993 to 0.00169993
Heightened Def Con from 0.00169994 to 0.00169994
Heightened Def Con from 0.00170093 to 0.00170094
Heightened Def Con from 0.00170809 to 0.00170809
Heightened Def Con from 0.00171589 to 0.00171589
Heightened Def Con from 0.00173186 to 0.00173186
Heightened Def Con from 0.00173186 to 0.00173187
Heightened Def Con from 0.00173286 to 0.00173287
Heightened Def Con from 0.00174016 to 0.00174016
Heightened Def Con from 0.00174782 to 0.00174782
Heightened Def Con from 0.00174883 to 0.00174883
Heightened Def Con from 0.00175 +to 0.00175
Heightened Def Con from 0.00175 to 0.00175
Heightened Def Con from 0.00175 ++to 0.00175
Heightened Def Con from 0.00175 +++++to 0.00175
Heightened Def Con from 0.00175 to 0.00175
Heightened Def Con from 0.00175719 to 0.0017572
Heightened Def Con from 0.00176379 to 0.00176379
Heightened Def Con from 0.00176379 +to 0.00176379
Heightened Def Con from 0.00176379 +to 0.0017638
Heightened Def Con from 0.00176479 to 0.0017648
Heightened Def Con from 0.00177223 to 0.00177223
Heightened Def Con from 0.00177976 to 0.00177976
Heightened Def Con from 0.00178826 to 0.00178827
Heightened Def Con from 0.00178926 to 0.00178927
Heightened Def Con from 0.00179572 to 0.00179572
Heightened Def Con from 0.00179572 to 0.00179573
Heightened Def Con from 0.00179672 to 0.00179673
Heightened Def Con from 0.0018043 to 0.0018043
Heightened Def Con from 0.0018043 to 0.0018043
Heightened Def Con from 0.0018043 to 0.0018043
Heightened Def Con from 0.00181169 to 0.00181169
Heightened Def Con from 0.00182033 to 0.00182033
Heightened Def Con from 0.00182133 to 0.00182134
Heightened Def Con from 0.00182765 +to 0.00182765
Heightened Def Con from 0.00182765 to 0.00182765
Heightened Def Con from 0.00182865 to 0.00182866
Heightened Def Con from 0.00183636 to 0.00183636
Heightened Def Con from 0.00183636 to 0.00183636
Heightened Def Con from 0.00184362 to 0.00184362
Heightened Def Con from 0.0018524 to 0.0018524
Heightened Def Con from 0.0018534 to 0.0018534
Heightened Def Con from 0.00185959 to 0.00185959
Heightened Def Con from 0.00185959 to 0.00185959
Heightened Def Con from 0.00185959 to 0.00185959
Heightened Def Con from 0.00186059 to 0.0018606
Heightened Def Con from 0.00186843 to 0.00186843
Heightened Def Con from 0.00187555 to 0.00187555
Heightened Def Con from 0.00188546 to 0.00188547
Heightened Def Con from 0.00189152 to 0.00189152
Heightened Def Con from 0.00189152 to 0.00189153
Heightened Def Con from 0.00189252 to 0.00189253
Heightened Def Con from 0.0019005 to 0.0019005
Heightened Def Con from 0.00190749 to 0.00190749
Heightened Def Con from 0.00190849 to 0.00190849
Heightened Def Con from 0.00191653 to 0.00191653
Heightened Def Con from 0.00191753 to 0.00191754
Heightened Def Con from 0.00192345 to 0.00192345
Heightened Def Con from 0.00192345 to 0.00192346
Heightened Def Con from 0.00192446 to 0.00192446
Heightened Def Con from 0.00193256 to 0.00193256
Heightened Def Con from 0.00193942 to 0.00193942
Heightened Def Con from 0.0019496 to 0.0019496
Heightened Def Con from 0.00195539 to 0.00195539
Heightened Def Con from 0.00195539 to 0.0019554
Heightened Def Con from 0.00195639 to 0.0019564
Heightened Def Con from 0.00196463 to 0.00196463
Heightened Def Con from 0.00197136 to 0.00197136
Heightened Def Con from 0.00198166 to 0.00198167
Heightened Def Con from 0.00198732 to 0.00198732
Heightened Def Con from 0.00198732 to 0.00198732
Heightened Def Con from 0.00198732 to 0.00198732
Heightened Def Con from 0.00198732 to 0.00198733
Heightened Def Con from 0.00198832 to 0.00198833
Heightened Def Con from 0.0019967 to 0.0019967
Heightened Def Con from 0.00200329 to 0.00200329
Heightened Def Con from 0.00201273 to 0.00201273
Heightened Def Con from 0.00201926 to 0.00201926
Heightened Def Con from 0.00201926 to 0.00201926
Heightened Def Con from 0.00201926 to 0.00201927
Heightened Def Con from 0.00202026 to 0.00202027
Heightened Def Con from 0.00202876 to 0.00202876
Heightened Def Con from 0.00202876 to 0.00202876
Heightened Def Con from 0.00203523 to 0.00203523
Heightened Def Con from 0.00205119 to 0.00205119
Heightened Def Con from 0.00205119 to 0.0020512
Heightened Def Con from 0.00205219 to 0.0020522
Heightened Def Con from 0.00206082 to 0.00206082
Heightened Def Con from 0.00206082 to 0.00206082
Heightened Def Con from 0.00206082 to 0.00206082
Heightened Def Con from 0.00206083 to 0.00206083
Heightened Def Con from 0.00206716 to 0.00206716
Heightened Def Con from 0.00207686 to 0.00207686
Heightened Def Con from 0.00207693 to 0.00207694
Heightened Def Con from 0.00208313 to 0.00208313
Heightened Def Con from 0.00208313 to 0.00208313
Heightened Def Con from 0.00208413 to 0.00208414
Heightened Def Con from 0.00209289 to 0.00209289
Heightened Def Con from 0.00209289 to 0.00209289
Heightened Def Con from 0.00209289 to 0.00209289
Heightened Def Con from 0.0020991 to 0.0020991
Heightened Def Con from 0.0021001 to 0.0021001
Heightened Def Con from 0.00210892 to 0.00210892
Heightened Def Con from 0.00211507 to 0.00211507
Heightened Def Con from 0.00211507 to 0.00211507
Heightened Def Con from 0.00211507 to 0.00211507
Heightened Def Con from 0.00211607 to 0.00211608
Heightened Def Con from 0.00213104 to 0.00213104
Heightened Def Con from 0.00214098 to 0.00214099
Heightened Def Con from 0.002147 to 0.002147
Heightened Def Con from 0.002147 to 0.00214701
Heightened Def Con from 0.002148 to 0.00214801
Heightened Def Con from 0.00215702 to 0.00215702
Heightened Def Con from 0.00215802 to 0.00215802
Heightened Def Con from 0.00216297 to 0.00216297
Heightened Def Con from 0.00217894 to 0.00217894
Heightened Def Con from 0.00217894 to 0.00217895
Heightened Def Con from 0.00217994 to 0.00217995
Heightened Def Con from 0.00218908 to 0.00218908
Heightened Def Con from 0.00219008 to 0.00219009
Heightened Def Con from 0.00219491 to 0.00219491
Heightened Def Con from 0.00220511 to 0.00220511
Heightened Def Con from 0.00221088 to 0.00221088
Heightened Def Con from 0.00221088 +to 0.00221088
Heightened Def Con from 0.00221088 to 0.00221088
Heightened Def Con from 0.00221088 ++++++to 0.00221088
Heightened Def Con from 0.00221088 +++++++++to 0.00221088
Heightened Def Con from 0.00221088 to 0.00221088
Heightened Def Con from 0.00221088 to 0.00221088
Heightened Def Con from 0.00221088 ++to 0.00221088
Heightened Def Con from 0.00221088 to 0.00221089
Heightened Def Con from 0.00221188 to 0.00221189
Heightened Def Con from 0.00222114 to 0.00222114
Heightened Def Con from 0.00222214 to 0.00222215
Heightened Def Con from 0.00222685 to 0.00222685
Heightened Def Con from 0.00222785 to 0.00222785
Heightened Def Con from 0.00223717 to 0.00223717
Heightened Def Con from 0.00224282 to 0.00224282
Heightened Def Con from 0.00224282 to 0.00224282
Heightened Def Con from 0.00224282 to 0.00224283
Heightened Def Con from 0.00224382 to 0.00224383
Heightened Def Con from 0.00225 to 0.00225
Heightened Def Con from 0.00225 to 0.00225
Heightened Def Con from 0.0022532 to 0.0022532
Heightened Def Con from 0.0022542 to 0.00225421
Heightened Def Con from 0.00225879 to 0.00225879
Heightened Def Con from 0.00226923 to 0.00226924
Heightened Def Con from 0.00227476 to 0.00227476
Heightened Def Con from 0.00227476 to 0.00227476
Heightened Def Con from 0.00227476 to 0.00227477
Heightened Def Con from 0.00227576 to 0.00227577
Heightened Def Con from 0.00228526 to 0.00228526
Heightened Def Con from 0.00228526 to 0.00228526
Heightened Def Con from 0.00228526 to 0.00228526
Heightened Def Con from 0.00229073 to 0.00229073
Heightened Def Con from 0.00229173 to 0.00229173
Heightened Def Con from 0.00230129 to 0.0023013
Heightened Def Con from 0.0023067 to 0.0023067
Heightened Def Con from 0.0023077 to 0.00230771
Heightened Def Con from 0.00231732 to 0.00231732
Heightened Def Con from 0.00231732 to 0.00231732
Heightened Def Con from 0.00232267 to 0.00232267
Heightened Def Con from 0.00233335 to 0.00233336
Heightened Def Con from 0.00233864 to 0.00233864
Heightened Def Con from 0.00233964 to 0.00233965
Heightened Def Con from 0.00234938 to 0.00234938
Heightened Def Con from 0.00234938 to 0.00234938
Heightened Def Con from 0.00234938 to 0.00234938
Heightened Def Con from 0.00235461 to 0.00235461
Heightened Def Con from 0.00237058 to 0.00237058
Heightened Def Con from 0.00237158 to 0.00237159
Heightened Def Con from 0.00238144 to 0.00238144
Heightened Def Con from 0.00238655 to 0.00238655
Heightened Def Con from 0.00239747 to 0.00239748
Heightened Def Con from 0.00239849 to 0.00239849
Heightened Def Con from 0.00240352 to 0.00240353
Heightened Def Con from 0.0024135 to 0.0024135
Heightened Def Con from 0.00241849 to 0.00241849
Heightened Def Con from 0.00242953 to 0.00242953
Heightened Def Con from 0.00243446 to 0.00243446
Heightened Def Con from 0.00243546 to 0.00243547
Heightened Def Con from 0.00244556 to 0.00244556
Heightened Def Con from 0.00244556 to 0.00244556
Heightened Def Con from 0.00244556 to 0.00244556
Heightened Def Con from 0.00245043 to 0.00245043
Heightened Def Con from 0.00245143 to 0.00245143
Heightened Def Con from 0.00246159 to 0.00246159
Heightened Def Con from 0.00246259 to 0.00246259
Heightened Def Con from 0.0024664 to 0.0024664
Heightened Def Con from 0.0024664 to 0.0024664
Heightened Def Con from 0.0024674 to 0.00246741
Heightened Def Con from 0.00247762 to 0.00247762
Heightened Def Con from 0.00248237 to 0.00248237
Heightened Def Con from 0.00249835 to 0.00249835
Heightened Def Con from 0.00249935 to 0.00249936
Heightened Def Con from 0.0025 to 0.0025
Heightened Def Con from 0.00250967 to 0.00250967
Heightened Def Con from 0.00250967 to 0.00250967
Heightened Def Con from 0.00251432 to 0.00251432
Heightened Def Con from 0.0025257 to 0.00252571
Heightened Def Con from 0.0025267 to 0.00252671
Heightened Def Con from 0.00253029 to 0.00253029
Heightened Def Con from 0.00253129 to 0.0025313
Heightened Def Con from 0.00254173 to 0.00254173
Heightened Def Con from 0.00254626 to 0.00254626
Heightened Def Con from 0.00256223 to 0.00256223
Heightened Def Con from 0.00256223 to 0.00256223
Heightened Def Con from 0.00256223 to 0.00256223
Heightened Def Con from 0.00256323 to 0.00256324
Heightened Def Con from 0.00257379 +to 0.00257379
Heightened Def Con from 0.00257379 to 0.00257379
Heightened Def Con from 0.00257379 to 0.00257379
Heightened Def Con from 0.00257379 to 0.00257379
Heightened Def Con from 0.00257821 to 0.00257821
Heightened Def Con from 0.00259081 to 0.00259082
Heightened Def Con from 0.00259418 to 0.00259418
Heightened Def Con from 0.00259518 to 0.00259519
Heightened Def Con from 0.00260584 to 0.00260584
Heightened Def Con from 0.00260584 to 0.00260584
Heightened Def Con from 0.00260584 to 0.00260584
Heightened Def Con from 0.00260584 to 0.00260584
Heightened Def Con from 0.00261015 to 0.00261015
Heightened Def Con from 0.00262187 to 0.00262187
Heightened Def Con from 0.00262287 to 0.00262287
Heightened Def Con from 0.00262612 to 0.00262612
Heightened Def Con from 0.00262612 to 0.00262612
Heightened Def Con from 0.00262612 to 0.00262612
Heightened Def Con from 0.00262713 to 0.00262713
Heightened Def Con from 0.0026379 to 0.0026379
Heightened Def Con from 0.0026379 to 0.0026379
Heightened Def Con from 0.0026379 to 0.0026379
Heightened Def Con from 0.0026389 to 0.0026389
Heightened Def Con from 0.0026421 to 0.0026421
Heightened Def Con from 0.00265392 to 0.00265393
Heightened Def Con from 0.00265493 to 0.00265493
Heightened Def Con from 0.00265807 to 0.00265807
Heightened Def Con from 0.00265907 to 0.00265908
Heightened Def Con from 0.00266995 to 0.00266995
Heightened Def Con from 0.00266995 to 0.00266995
Heightened Def Con from 0.00267404 to 0.00267404
Heightened Def Con from 0.00267404 to 0.00267404
Heightened Def Con from 0.00268598 to 0.00268598
Heightened Def Con from 0.00269002 to 0.00269002
Heightened Def Con from 0.00269102 to 0.00269103
Heightened Def Con from 0.002702 to 0.002702
Heightened Def Con from 0.002702 to 0.002702
Heightened Def Con from 0.00270599 to 0.00270599
Heightened Def Con from 0.00272196 to 0.00272196
Heightened Def Con from 0.00272296 to 0.00272297
Heightened Def Con from 0.00273406 to 0.00273406
Heightened Def Con from 0.00273406 to 0.00273406
Heightened Def Con from 0.00273406 to 0.00273406
Heightened Def Con from 0.00273506 to 0.00273506
Heightened Def Con from 0.00273794 to 0.00273794
Heightened Def Con from 0.00274729 to 0.00274729
Heightened Def Con from 0.00275 +++to 0.00275
Heightened Def Con from 0.00275 +to 0.00275
Heightened Def Con from 0.00275 to 0.00275
Heightened Def Con from 0.00275008 to 0.00275009
Heightened Def Con from 0.00275391 to 0.00275391
Heightened Def Con from 0.00275391 to 0.00275391
Heightened Def Con from 0.00275491 to 0.00275492
Heightened Def Con from 0.00276611 to 0.00276611
Heightened Def Con from 0.00276611 to 0.00276611
Heightened Def Con from 0.00276988 to 0.00276988
Heightened Def Con from 0.00278586 to 0.00278586
Heightened Def Con from 0.00278686 to 0.00278687
Heightened Def Con from 0.00279816 to 0.00279816
Heightened Def Con from 0.00279816 to 0.00279816
Heightened Def Con from 0.00280183 to 0.00280183
Heightened Def Con from 0.00281419 to 0.00281419
Heightened Def Con from 0.00281781 to 0.00281781
Heightened Def Con from 0.00281881 to 0.00281882
Heightened Def Con from 0.00283021 to 0.00283021
Heightened Def Con from 0.00283021 to 0.00283021
Heightened Def Con from 0.00283378 to 0.00283378
Heightened Def Con from 0.00283378 to 0.00283378
Heightened Def Con from 0.00284631 to 0.00284631
Heightened Def Con from 0.00284976 to 0.00284976
Heightened Def Con from 0.00284976 to 0.00284976
Heightened Def Con from 0.00285076 to 0.00285077
Heightened Def Con from 0.00286226 to 0.00286226
Heightened Def Con from 0.00286226 to 0.00286226
Heightened Def Con from 0.00286573 to 0.00286573
Heightened Def Con from 0.00286673 to 0.00286673
Heightened Def Con from 0.00287829 to 0.00287829
Heightened Def Con from 0.00288171 to 0.00288171
Heightened Def Con from 0.00288171 to 0.00288171
Heightened Def Con from 0.00288271 to 0.00288272
Heightened Def Con from 0.00289431 to 0.00289431
Heightened Def Con from 0.00289768 to 0.00289768
Heightened Def Con from 0.00289768 to 0.00289768
Heightened Def Con from 0.00289768 to 0.00289768
Heightened Def Con from 0.00289868 to 0.00289869
Heightened Def Con from 0.00291366 to 0.00291366
Heightened Def Con from 0.00291466 to 0.00291467
Heightened Def Con from 0.00292636 to 0.00292636
Heightened Def Con from 0.00292636 to 0.00292636
Heightened Def Con from 0.00292636 to 0.00292636
Heightened Def Con from 0.00292963 to 0.00292963
Heightened Def Con from 0.00294239 to 0.00294239
Heightened Def Con from 0.00294561 to 0.00294561
Heightened Def Con from 0.00294661 to 0.00294662
Heightened Def Con from 0.00295841 to 0.00295841
Heightened Def Con from 0.00296159 to 0.00296159
Heightened Def Con from 0.00296259 to 0.00296259
Heightened Def Con from 0.00297443 to 0.00297444
Heightened Def Con from 0.00297756 to 0.00297756
Heightened Def Con from 0.00297856 to 0.00297857
Heightened Def Con from 0.00299046 to 0.00299046
Heightened Def Con from 0.00299354 to 0.00299354
Heightened Def Con from 0.00300951 to 0.00300951
Heightened Def Con from 0.00301052 to 0.00301052
Heightened Def Con from 0.0030225 to 0.0030225
Heightened Def Con from 0.0030225 to 0.0030225
Heightened Def Con from 0.00302251 to 0.00302251
Heightened Def Con from 0.00302549 to 0.00302549
Heightened Def Con from 0.00302649 to 0.0030265
Heightened Def Con from 0.00303853 to 0.00303853
Heightened Def Con from 0.00304147 to 0.00304147
Heightened Def Con from 0.00304247 to 0.00304248
Heightened Def Con from 0.00305455 to 0.00305455
Heightened Def Con from 0.00305455 to 0.00305455
Heightened Def Con from 0.00305744 to 0.00305744
Heightened Def Con from 0.00307057 to 0.00307058
Heightened Def Con from 0.00307342 +to 0.00307342
Heightened Def Con from 0.00307342 to 0.00307342
Heightened Def Con from 0.00307342 to 0.00307342
Heightened Def Con from 0.00307442 to 0.00307443
Heightened Def Con from 0.0030866 to 0.0030866
Heightened Def Con from 0.0030866 to 0.0030866
Heightened Def Con from 0.0030866 to 0.0030866
Heightened Def Con from 0.0030876 to 0.00308761
Heightened Def Con from 0.0030894 to 0.0030894
Heightened Def Con from 0.0030894 to 0.0030894
Heightened Def Con from 0.0030894 to 0.0030894
Heightened Def Con from 0.0030894 to 0.0030894
Heightened Def Con from 0.0030904 to 0.0030904
Heightened Def Con from 0.00310538 to 0.00310538
Heightened Def Con from 0.00310538 to 0.00310538
Heightened Def Con from 0.00310638 to 0.00310639
Heightened Def Con from 0.00311864 to 0.00311864
Heightened Def Con from 0.00311864 to 0.00311864
Heightened Def Con from 0.00312135 to 0.00312135
Heightened Def Con from 0.00312135 to 0.00312135
Heightened Def Con from 0.00313467 to 0.00313467
Heightened Def Con from 0.00313733 to 0.00313733
Heightened Def Con from 0.00313833 to 0.00313834
Heightened Def Con from 0.00315069 to 0.00315069
Heightened Def Con from 0.00315069 to 0.00315069
Heightened Def Con from 0.00315331 to 0.00315331
Heightened Def Con from 0.00315331 to 0.00315331
Heightened Def Con from 0.00315431 to 0.00315432
Heightened Def Con from 0.00316671 to 0.00316671
Heightened Def Con from 0.00316677 to 0.00316678
Heightened Def Con from 0.00316929 to 0.00316929
Heightened Def Con from 0.00317029 to 0.0031703
Heightened Def Con from 0.00318273 to 0.00318273
Heightened Def Con from 0.00318527 to 0.00318527
Heightened Def Con from 0.00318527 to 0.00318527
Heightened Def Con from 0.00318527 to 0.00318527
Heightened Def Con from 0.00319875 to 0.00319876
Heightened Def Con from 0.00320124 to 0.00320124
Heightened Def Con from 0.00320225 to 0.00320225
Heightened Def Con from 0.00321477 to 0.00321477
Heightened Def Con from 0.00321477 to 0.00321477
Heightened Def Con from 0.00321722 to 0.00321722
Heightened Def Con from 0.00321722 to 0.00321722
Heightened Def Con from 0.00321822 to 0.00321822
Heightened Def Con from 0.0032308 to 0.0032308
Heightened Def Con from 0.0032332 to 0.0032332
Heightened Def Con from 0.0032332 to 0.0032332
Heightened Def Con from 0.00324682 to 0.00324682
Heightened Def Con from 0.00324682 to 0.00324682
Heightened Def Con from 0.00324682 to 0.00324682
Heightened Def Con from 0.00324918 to 0.00324918
Heightened Def Con from 0.00324918 to 0.00324918
Heightened Def Con from 0.00324918 to 0.00324918
Heightened Def Con from 0.00325 to 0.00325
Heightened Def Con from 0.00325 to 0.00325
Heightened Def Con from 0.00325018 to 0.00325019
Heightened Def Con from 0.00326516 to 0.00326516
Heightened Def Con from 0.00326616 to 0.00326617
Heightened Def Con from 0.00327886 to 0.00327886
Heightened Def Con from 0.00327886 to 0.00327886
Heightened Def Con from 0.00327886 to 0.00327886
Heightened Def Con from 0.00328114 to 0.00328114
Heightened Def Con from 0.00328214 to 0.00328214
Heightened Def Con from 0.00329488 to 0.00329488
Heightened Def Con from 0.00329712 to 0.00329712
Heightened Def Con from 0.00329712 to 0.00329712
Heightened Def Con from 0.00329812 to 0.00329813
Heightened Def Con from 0.0033109 to 0.0033109
Heightened Def Con from 0.0033131 to 0.0033131
Heightened Def Con from 0.00332908 to 0.00332908
Heightened Def Con from 0.00333008 to 0.00333009
Heightened Def Con from 0.00334294 to 0.00334294
Heightened Def Con from 0.00334294 to 0.00334294
Heightened Def Con from 0.00334294 ++to 0.00334294
Heightened Def Con from 0.00334294 to 0.00334294
Heightened Def Con from 0.00334506 to 0.00334506
Heightened Def Con from 0.00334606 to 0.00334606
Heightened Def Con from 0.00336104 to 0.00336104
Heightened Def Con from 0.00336104 to 0.00336104
Heightened Def Con from 0.00337498 to 0.00337498
Heightened Def Con from 0.00337598 to 0.00337599
Heightened Def Con from 0.00337702 to 0.00337702
Heightened Def Con from 0.00337802 to 0.00337802
Heightened Def Con from 0.003391 to 0.003391
Heightened Def Con from 0.003393 to 0.003393
Heightened Def Con from 0.003393 to 0.003393
Heightened Def Con from 0.003394 to 0.00339401
Heightened Def Con from 0.00340702 to 0.00340702
Heightened Def Con from 0.00340898 to 0.00340898
Heightened Def Con from 0.00340898 to 0.00340898
Heightened Def Con from 0.00340998 to 0.00340998
Heightened Def Con from 0.00342304 to 0.00342304
Heightened Def Con from 0.00342496 to 0.00342496
Heightened Def Con from 0.00342596 to 0.00342597
Heightened Def Con from 0.00343906 to 0.00343906
Heightened Def Con from 0.00344006 to 0.00344007
Heightened Def Con from 0.00344094 to 0.00344094
Heightened Def Con from 0.00344094 to 0.00344094
Heightened Def Con from 0.00345508 to 0.00345508
Heightened Def Con from 0.00345608 to 0.00345608
Heightened Def Con from 0.00345692 to 0.00345692
Heightened Def Con from 0.00345692 to 0.00345692
Heightened Def Con from 0.00345792 to 0.00345793
Heightened Def Con from 0.00347109 to 0.00347109
Heightened Def Con from 0.0034711 to 0.0034711
Heightened Def Con from 0.0034729 to 0.0034729
Heightened Def Con from 0.0034739 to 0.00347391
Heightened Def Con from 0.00348812 to 0.00348812
Heightened Def Con from 0.00348888 to 0.00348888
Heightened Def Con from 0.00348989 to 0.00348989
Heightened Def Con from 0.0035 to 0.0035
Heightened Def Con from 0.00350313 to 0.00350313
Heightened Def Con from 0.00350313 +to 0.00350313
Heightened Def Con from 0.00350313 to 0.00350313
Heightened Def Con from 0.00350487 to 0.00350487
Heightened Def Con from 0.00350487 to 0.00350487
Heightened Def Con from 0.00351915 to 0.00351915
Heightened Def Con from 0.00351921 to 0.00351921
Heightened Def Con from 0.00352085 to 0.00352085
Heightened Def Con from 0.00352185 to 0.00352186
Heightened Def Con from 0.00353517 to 0.00353517
Heightened Def Con from 0.00353517 to 0.00353517
Heightened Def Con from 0.00353683 to 0.00353683
Heightened Def Con from 0.00353783 to 0.00353784
Heightened Def Con from 0.00355119 to 0.00355119
Heightened Def Con from 0.00355281 to 0.00355281
Heightened Def Con from 0.00355381 to 0.00355382
Heightened Def Con from 0.0035672 to 0.0035672
Heightened Def Con from 0.0035672 to 0.0035672
Heightened Def Con from 0.00356879 to 0.00356879
Heightened Def Con from 0.0035688 to 0.0035688
Heightened Def Con from 0.0035698 to 0.0035698
Heightened Def Con from 0.00358322 to 0.00358322
Heightened Def Con from 0.00358478 to 0.00358478
Heightened Def Con from 0.00358578 to 0.00358579
Heightened Def Con from 0.00359924 to 0.00359924
Heightened Def Con from 0.00360076 to 0.00360076
Heightened Def Con from 0.00360176 to 0.00360177
Heightened Def Con from 0.00361674 to 0.00361674
Heightened Def Con from 0.00361674 to 0.00361674
Heightened Def Con from 0.00361775 to 0.00361775
Heightened Def Con from 0.00363127 to 0.00363127
Heightened Def Con from 0.00363127 to 0.00363127
Heightened Def Con from 0.00363127 to 0.00363127
Heightened Def Con from 0.00363273 to 0.00363273
Heightened Def Con from 0.00363373 to 0.00363373
Heightened Def Con from 0.00364729 to 0.00364729
Heightened Def Con from 0.00364871 to 0.00364871
Heightened Def Con from 0.00364871 to 0.00364871
Heightened Def Con from 0.00364971 to 0.00364972
Heightened Def Con from 0.0036633 to 0.00366331
Heightened Def Con from 0.00366469 to 0.00366469
Heightened Def Con from 0.00366569 to 0.0036657
Heightened Def Con from 0.00368068 to 0.00368068
Heightened Def Con from 0.00368168 to 0.00368169
Heightened Def Con from 0.00369534 to 0.00369534
Heightened Def Con from 0.00369534 to 0.00369534
Heightened Def Con from 0.00369666 to 0.00369666
Heightened Def Con from 0.00369766 to 0.00369766
Heightened Def Con from 0.00371135 to 0.00371136
Heightened Def Con from 0.00371265 to 0.00371265
Heightened Def Con from 0.00371365 to 0.00371365
Heightened Def Con from 0.00372737 to 0.00372737
Heightened Def Con from 0.00372737 to 0.00372737
Heightened Def Con from 0.00372863 to 0.00372863
Heightened Def Con from 0.00372963 to 0.00372964
Heightened Def Con from 0.00374461 to 0.00374461
Heightened Def Con from 0.00374562 to 0.00374562
Heightened Def Con from 0.00375 +++++++++++++++++++++++to 0.00375
Heightened Def Con from 0.00375 to 0.00375
Heightened Def Con from 0.0037594 to 0.0037594
Heightened Def Con from 0.0037594 to 0.0037594
Heightened Def Con from 0.0037594 to 0.0037594
Heightened Def Con from 0.0037606 to 0.0037606
Heightened Def Con from 0.00377658 to 0.00377658
Heightened Def Con from 0.00377759 to 0.00377759
Heightened Def Con from 0.00379143 to 0.00379143
Heightened Def Con from 0.00379257 to 0.00379257
Heightened Def Con from 0.00379357 to 0.00379357
Heightened Def Con from 0.00380855 to 0.00380855
Heightened Def Con from 0.00380855 to 0.00380855
Heightened Def Con from 0.00380956 to 0.00380956
Heightened Def Con from 0.00382346 to 0.00382346
Heightened Def Con from 0.00382346 to 0.00382346
Heightened Def Con from 0.00382454 to 0.00382454
Heightened Def Con from 0.00382554 to 0.00382554
Heightened Def Con from 0.00383947 to 0.00383948
Heightened Def Con from 0.00384052 to 0.00384052
Heightened Def Con from 0.00384052 to 0.00384052
Heightened Def Con from 0.00384052 to 0.00384053
Heightened Def Con from 0.00384053 to 0.00384053
Heightened Def Con from 0.00384152 to 0.00384153
Heightened Def Con from 0.00385549 to 0.00385549
Heightened Def Con from 0.00385651 to 0.00385651
Heightened Def Con from 0.00385651 to 0.00385651
Heightened Def Con from 0.0038715 to 0.00387151
Heightened Def Con from 0.00387338 to 0.00387338
Heightened Def Con from 0.00388752 to 0.00388752
Heightened Def Con from 0.00388752 to 0.00388752
Heightened Def Con from 0.00388848 to 0.00388849
Heightened Def Con from 0.00390353 to 0.00390353
Heightened Def Con from 0.0039054 to 0.0039054
Heightened Def Con from 0.00391954 to 0.00391954
Heightened Def Con from 0.00391954 to 0.00391954
Heightened Def Con from 0.00392046 to 0.00392046
Heightened Def Con from 0.00393748 to 0.00393748
Heightened Def Con from 0.00395157 to 0.00395157
Heightened Def Con from 0.00395243 to 0.00395243
Heightened Def Con from 0.00396942 to 0.00396943
Heightened Def Con from 0.0039836 to 0.0039836
Heightened Def Con from 0.0039836 to 0.0039836
Heightened Def Con from 0.004 to 0.004
Heightened Def Con from 0.00400147 to 0.00400148
Heightened Def Con from 0.00401562 to 0.00401562
Heightened Def Con from 0.00401562 to 0.00401562
Heightened Def Con from 0.00401638 to 0.00401638
Heightened Def Con from 0.00403163 to 0.00403164
Heightened Def Con from 0.00403346 to 0.00403347
Heightened Def Con from 0.00404764 to 0.00404764
Heightened Def Con from 0.00406547 to 0.00406548
Heightened Def Con from 0.00407967 to 0.00407967
Heightened Def Con from 0.00407967 to 0.00407967
Heightened Def Con from 0.00408033 to 0.00408034
Heightened Def Con from 0.00409632 to 0.00409633
Heightened Def Con from 0.00411169 to 0.00411169
Heightened Def Con from 0.00411231 to 0.00411231
Heightened Def Con from 0.0041277 to 0.0041277
Heightened Def Con from 0.0041283 to 0.00412831
Heightened Def Con from 0.00414371 to 0.00414371
Heightened Def Con from 0.00414371 to 0.00414371
Heightened Def Con from 0.00414429 to 0.00414429
Heightened Def Con from 0.00416028 to 0.00416029
Heightened Def Con from 0.00417573 to 0.00417573
Heightened Def Con from 0.00417573 to 0.00417573
Heightened Def Con from 0.00419226 to 0.00419227
Heightened Def Con from 0.00420775 to 0.00420775
Heightened Def Con from 0.00420825 to 0.00420825
Heightened Def Con from 0.00422382 to 0.00422382
Heightened Def Con from 0.00422424 to 0.00422424
Heightened Def Con from 0.00422424 to 0.00422425
Heightened Def Con from 0.00423977 to 0.00423977
Heightened Def Con from 0.00423977 to 0.00423977
Heightened Def Con from 0.00423977 to 0.00423978
Heightened Def Con from 0.00424629 to 0.00424629
Heightened Def Con from 0.00425622 to 0.00425623
Heightened Def Con from 0.00427179 to 0.00427179
Heightened Def Con from 0.00427179 to 0.00427179
Heightened Def Con from 0.00427221 to 0.00427221
Heightened Def Con from 0.0042882 to 0.00428821
Heightened Def Con from 0.00430381 to 0.00430381
Heightened Def Con from 0.00430381 to 0.00430381
Heightened Def Con from 0.00430419 to 0.00430419
Heightened Def Con from 0.00431987 to 0.00431988
Heightened Def Con from 0.00432018 to 0.00432019
Heightened Def Con from 0.00433583 to 0.00433583
Heightened Def Con from 0.00433583 to 0.00433583
Heightened Def Con from 0.00433617 to 0.00433618
Heightened Def Con from 0.00435217 to 0.00435217
Heightened Def Con from 0.00436784 to 0.00436784
Heightened Def Con from 0.00436784 to 0.00436784
Heightened Def Con from 0.00439986 to 0.00439986
Heightened Def Con from 0.00439986 to 0.00439986
Heightened Def Con from 0.00441587 to 0.00441587
Heightened Def Con from 0.00441613 to 0.00441614
Heightened Def Con from 0.00443187 to 0.00443187
Heightened Def Con from 0.00443213 to 0.00443213
Heightened Def Con from 0.00444788 to 0.00444788
Heightened Def Con from 0.00444812 to 0.00444813
Heightened Def Con from 0.00446389 to 0.00446389
Heightened Def Con from 0.00446389 to 0.00446389
Heightened Def Con from 0.00446411 to 0.00446412
Heightened Def Con from 0.00448011 to 0.00448012
Heightened Def Con from 0.0044959 to 0.0044959
Heightened Def Con from 0.0044961 to 0.00449611
Heightened Def Con from 0.00451209 to 0.0045121
Heightened Def Con from 0.00452791 to 0.00452791
Heightened Def Con from 0.00452791 to 0.00452791
Heightened Def Con from 0.00452791 to 0.00452791
Heightened Def Con from 0.00452791 to 0.00452791
Heightened Def Con from 0.00454408 to 0.00454409
Heightened Def Con from 0.00455992 to 0.00455992
Heightened Def Con from 0.00457607 to 0.00457608
Heightened Def Con from 0.00459193 to 0.00459193
Heightened Def Con from 0.00459207 to 0.00459207
Heightened Def Con from 0.00460806 to 0.00460807
Heightened Def Con from 0.00462394 to 0.00462394
Heightened Def Con from 0.00462394 to 0.00462394
Heightened Def Con from 0.00462394 to 0.00462394
Heightened Def Con from 0.00462394 to 0.00462394
Heightened Def Con from 0.00462406 to 0.00462406
Heightened Def Con from 0.00463995 to 0.00463995
Heightened Def Con from 0.00464005 to 0.00464006
Heightened Def Con from 0.00465595 to 0.00465595
Heightened Def Con from 0.00465605 to 0.00465605
Heightened Def Con from 0.00467204 to 0.00467205
Heightened Def Con from 0.00468796 to 0.00468796
Heightened Def Con from 0.00470404 to 0.00470404
Heightened Def Con from 0.00471997 to 0.00471997
Heightened Def Con from 0.00472003 to 0.00472004
Heightened Def Con from 0.00473603 to 0.00473603
Heightened Def Con from 0.00475198 to 0.00475198
Heightened Def Con from 0.00475203 to 0.00475203
Heightened Def Con from 0.00476798 to 0.00476798
Heightened Def Con from 0.00476802 to 0.00476803
Heightened Def Con from 0.00478398 to 0.00478398
Heightened Def Con from 0.00478398 to 0.00478398
Heightened Def Con from 0.00478402 to 0.00478402
Heightened Def Con from 0.00481599 to 0.00481599
Heightened Def Con from 0.00483199 to 0.00483199
Heightened Def Con from 0.00484799 to 0.00484799
Heightened Def Con from 0.00484799 to 0.00484799
Heightened Def Con from 0.00484799 to 0.00484799
Heightened Def Con from 0.00484801 to 0.00484802
Heightened Def Con from 0.00486399 to 0.004864
Heightened Def Con from 0.00487999 to 0.00487999
Heightened Def Con from 0.00487999 to 0.00487999
Heightened Def Con from 0.00487999 to 0.00487999
Heightened Def Con from 0.00487999 to 0.00487999
Heightened Def Con from 0.00487999 to 0.00487999
Heightened Def Con from 0.00487999 to 0.00487999
Heightened Def Con from 0.004912 to 0.004912
Heightened Def Con from 0.004912 to 0.004912
Heightened Def Con from 0.004944 to 0.004944
Heightened Def Con from 0.004944 to 0.004944
Heightened Def Con from 0.004944 to 0.004944
Heightened Def Con from 0.004944 to 0.004944
Heightened Def Con from 0.004944 to 0.00494401
Heightened Def Con from 0.00496 to 0.00496
Heightened Def Con from 0.004976 to 0.004976
Heightened Def Con from 0.004976 to 0.004976
Heightened Def Con from 0.004992 to 0.004992
Heightened Def Con from 0.005008 to 0.005008
Heightened Def Con from 0.005024 to 0.005024
Heightened Def Con from 0.00504 to 0.00504
Heightened Def Con from 0.005056 to 0.00505601
Heightened Def Con from 0.005072 to 0.005072
Heightened Def Con from 0.005072 to 0.005072
Heightened Def Con from 0.005072 to 0.00507201
Heightened Def Con from 0.005088 to 0.005088
Heightened Def Con from 0.005104 to 0.005104
Heightened Def Con from 0.00510401 to 0.00510401
Heightened Def Con from 0.00513599 to 0.00513599
Heightened Def Con from 0.00513601 to 0.00513601
Heightened Def Con from 0.00516799 +++to 0.00516799
Heightened Def Con from 0.00516799 to 0.00516799
Heightened Def Con from 0.00516801 to 0.00516802
Heightened Def Con from 0.00519998 to 0.00519998
Heightened Def Con from 0.00519998 to 0.00519999
Heightened Def Con from 0.00520002 to 0.00520002
Heightened Def Con from 0.00523198 to 0.00523198
Heightened Def Con from 0.00523198 to 0.00523198
Heightened Def Con from 0.00523202 to 0.00523202
Heightened Def Con from 0.00524927 to 0.00524927
Heightened Def Con from 0.00526397 to 0.00526397
Heightened Def Con from 0.00526397 to 0.00526397
Heightened Def Con from 0.00526403 to 0.00526403
Heightened Def Con from 0.00529597 to 0.00529597
Heightened Def Con from 0.00529604 to 0.00529604
Heightened Def Con from 0.00531201 to 0.00531202
Heightened Def Con from 0.00531204 to 0.00531205
Heightened Def Con from 0.00532796 to 0.00532796
Heightened Def Con from 0.00532796 to 0.00532796
Heightened Def Con from 0.00532796 to 0.00532796
Heightened Def Con from 0.00532804 to 0.00532805
Heightened Def Con from 0.00534401 to 0.00534401
Heightened Def Con from 0.00534405 to 0.00534406
Heightened Def Con from 0.00535995 to 0.00535995
Heightened Def Con from 0.00536005 to 0.00536006
Heightened Def Con from 0.00537594 to 0.00537595
Heightened Def Con from 0.00537606 to 0.00537606
Heightened Def Con from 0.00539194 to 0.00539194
Heightened Def Con from 0.00539194 to 0.00539194
Heightened Def Con from 0.00539194 to 0.00539194
Heightened Def Con from 0.00539206 to 0.00539207
Heightened Def Con from 0.00540807 to 0.00540807
Heightened Def Con from 0.00542393 to 0.00542393
Heightened Def Con from 0.00542393 to 0.00542393
Heightened Def Con from 0.00542407 to 0.00542407
Heightened Def Con from 0.00543992 to 0.00543993
Heightened Def Con from 0.00543997 to 0.00543998
Heightened Def Con from 0.00544008 to 0.00544009
Heightened Def Con from 0.00545592 to 0.00545592
Heightened Def Con from 0.00545592 to 0.00545592
Heightened Def Con from 0.00545592 to 0.00545592
Heightened Def Con from 0.00545592 to 0.00545592
Heightened Def Con from 0.00545608 to 0.00545609
Heightened Def Con from 0.00547209 to 0.0054721
Heightened Def Con from 0.00548791 to 0.00548791
Heightened Def Con from 0.00548791 to 0.00548791
Heightened Def Con from 0.00548791 to 0.00548791
Heightened Def Con from 0.00548791 to 0.00548791
Heightened Def Con from 0.00548791 to 0.00548791
Heightened Def Con from 0.0054881 to 0.0054881
Heightened Def Con from 0.0055039 to 0.0055039
Heightened Def Con from 0.0055041 to 0.00550411
Heightened Def Con from 0.00551989 to 0.00551989
Heightened Def Con from 0.00551989 to 0.00551989
Heightened Def Con from 0.0055201 to 0.0055201
Heightened Def Con from 0.00552011 to 0.00552011
Heightened Def Con from 0.00553612 to 0.00553612
Heightened Def Con from 0.00555188 to 0.00555188
Heightened Def Con from 0.00555188 to 0.00555188
Heightened Def Con from 0.00555188 to 0.00555188
Heightened Def Con from 0.00555188 to 0.00555188
Heightened Def Con from 0.00555212 to 0.00555213
Heightened Def Con from 0.00556813 to 0.00556814
Heightened Def Con from 0.00558387 to 0.00558387
Heightened Def Con from 0.00558387 to 0.00558387
Heightened Def Con from 0.00558414 to 0.00558414
Heightened Def Con from 0.00559986 to 0.00559986
Heightened Def Con from 0.00560014 to 0.00560015
Heightened Def Con from 0.00561585 to 0.00561585
Heightened Def Con from 0.00561615 to 0.00561616
Heightened Def Con from 0.00563216 to 0.00563217
Heightened Def Con from 0.00564783 to 0.00564783
Heightened Def Con from 0.00564783 to 0.00564783
Heightened Def Con from 0.00564817 to 0.00564817
Heightened Def Con from 0.00566383 to 0.00566383
Heightened Def Con from 0.00566388 to 0.00566388
Heightened Def Con from 0.00566417 to 0.00566418
Heightened Def Con from 0.00567982 to 0.00567982
Heightened Def Con from 0.00567982 to 0.00567982
Heightened Def Con from 0.00567982 to 0.00567982
Heightened Def Con from 0.00567982 to 0.00567982
Heightened Def Con from 0.00568018 to 0.00568019
Heightened Def Con from 0.00569619 to 0.0056962
Heightened Def Con from 0.0057118 to 0.0057118
Heightened Def Con from 0.0057122 to 0.0057122
Heightened Def Con from 0.00572821 to 0.00572822
Heightened Def Con from 0.00574378 to 0.00574378
Heightened Def Con from 0.00574378 to 0.00574379
Heightened Def Con from 0.00574422 to 0.00574422
Heightened Def Con from 0.00574819 to 0.0057482
Heightened Def Con from 0.00576023 to 0.00576024
Heightened Def Con from 0.00577576 to 0.00577576
Heightened Def Con from 0.00577576 to 0.00577576
Heightened Def Con from 0.00577624 to 0.00577624
Heightened Def Con from 0.0057918 to 0.0057918
Heightened Def Con from 0.00579225 to 0.00579226
Heightened Def Con from 0.00580774 to 0.00580774
Heightened Def Con from 0.00580826 to 0.00580826
Heightened Def Con from 0.00582427 to 0.00582428
Heightened Def Con from 0.00583972 to 0.00583972
Heightened Def Con from 0.00583972 to 0.00583973
Heightened Def Con from 0.00584028 to 0.00584028
Heightened Def Con from 0.00585571 to 0.00585571
Heightened Def Con from 0.00585576 to 0.00585576
Heightened Def Con from 0.00585629 to 0.0058563
Heightened Def Con from 0.0058717 to 0.0058717
Heightened Def Con from 0.0058723 to 0.0058723
Heightened Def Con from 0.00588831 to 0.00588832
Heightened Def Con from 0.00590368 to 0.00590368
Heightened Def Con from 0.00590368 to 0.00590368
Heightened Def Con from 0.00590432 to 0.00590433
Heightened Def Con from 0.00592033 to 0.00592034
Heightened Def Con from 0.00593566 to 0.00593566
Heightened Def Con from 0.00593566 to 0.00593566
Heightened Def Con from 0.00593566 to 0.00593566
Heightened Def Con from 0.00593635 to 0.00593635
Heightened Def Con from 0.00595236 to 0.00595236
Heightened Def Con from 0.00596763 to 0.00596763
Heightened Def Con from 0.00596763 to 0.00596763
Heightened Def Con from 0.00596763 to 0.00596763
Heightened Def Con from 0.00596763 to 0.00596763
Heightened Def Con from 0.00596763 to 0.00596763
Heightened Def Con from 0.00598438 to 0.00598439
Heightened Def Con from 0.0060164 to 0.00601641
Heightened Def Con from 0.00603158 to 0.00603158
Heightened Def Con from 0.00603158 to 0.00603158
Heightened Def Con from 0.00603158 to 0.00603158
Heightened Def Con from 0.00603242 to 0.00603242
Heightened Def Con from 0.00604762 to 0.00604763
Heightened Def Con from 0.00606356 to 0.00606356
Heightened Def Con from 0.00606356 to 0.00606356
Heightened Def Con from 0.0060654 to 0.0060654
Heightened Def Con from 0.00608139 to 0.0060814
Heightened Def Con from 0.00609553 to 0.00609553
Heightened Def Con from 0.00609553 ++++to 0.00609553
Heightened Def Con from 0.00609553 +to 0.00609553
Heightened Def Con from 0.00609553 to 0.00609553
Heightened Def Con from 0.0060974 to 0.00609741
Heightened Def Con from 0.00611157 to 0.00611157
Heightened Def Con from 0.00611336 to 0.00611336
Heightened Def Con from 0.0061275 to 0.0061275
Heightened Def Con from 0.00614451 +to 0.00614451
Heightened Def Con from 0.00614551 to 0.00614552
Heightened Def Con from 0.00615947 to 0.00615947
Heightened Def Con from 0.00615947 to 0.00615947
Heightened Def Con from 0.00615948 to 0.00615948
Heightened Def Con from 0.00616053 to 0.00616053
Heightened Def Con from 0.00616153 to 0.00616153
Heightened Def Con from 0.00617546 to 0.00617546
Heightened Def Con from 0.00617654 to 0.00617654
Heightened Def Con from 0.00617754 to 0.00617755
Heightened Def Con from 0.00619145 to 0.00619145
Heightened Def Con from 0.00619145 to 0.00619145
Heightened Def Con from 0.00619145 to 0.00619145
Heightened Def Con from 0.00619145 to 0.00619145
Heightened Def Con from 0.00619145 to 0.00619145
Heightened Def Con from 0.00619255 to 0.00619256
Heightened Def Con from 0.00620857 to 0.00620857
Heightened Def Con from 0.00620957 to 0.00620958
Heightened Def Con from 0.00622342 to 0.00622342
Heightened Def Con from 0.00622342 to 0.00622342
Heightened Def Con from 0.00622342 to 0.00622342
Heightened Def Con from 0.00622342 to 0.00622342
Heightened Def Con from 0.00622458 to 0.00622458
Heightened Def Con from 0.00622559 to 0.00622559
Heightened Def Con from 0.00623945 to 0.00623945
Heightened Def Con from 0.0062406 to 0.0062406
Heightened Def Con from 0.0062406 to 0.0062406
Heightened Def Con from 0.00625539 to 0.00625539
Heightened Def Con from 0.00625662 to 0.00625662
Heightened Def Con from 0.00627137 to 0.00627137
Heightened Def Con from 0.00627142 to 0.00627142
Heightened Def Con from 0.00627263 to 0.00627263
Heightened Def Con from 0.00627263 to 0.00627263
Heightened Def Con from 0.00627363 to 0.00627364
Heightened Def Con from 0.00628735 +to 0.00628735
Heightened Def Con from 0.00628735 to 0.00628735
Heightened Def Con from 0.00628865 to 0.00628865
Heightened Def Con from 0.00628965 to 0.00628965
Heightened Def Con from 0.00630339 to 0.00630339
Heightened Def Con from 0.00630466 to 0.00630466
Heightened Def Con from 0.00630566 to 0.00630567
Heightened Def Con from 0.00631932 to 0.00631932
Heightened Def Con from 0.00631932 to 0.00631932
Heightened Def Con from 0.00631932 to 0.00631932
Heightened Def Con from 0.00632068 to 0.00632068
Heightened Def Con from 0.00632168 to 0.00632168
Heightened Def Con from 0.00633669 to 0.00633669
Heightened Def Con from 0.0063367 to 0.0063367
Heightened Def Con from 0.00635129 to 0.00635129
Heightened Def Con from 0.00635129 to 0.00635129
Heightened Def Con from 0.00635271 to 0.00635271
Heightened Def Con from 0.00635371 to 0.00635372
Heightened Def Con from 0.00636727 to 0.00636728
Heightened Def Con from 0.00636873 to 0.00636873
Heightened Def Con from 0.00636873 to 0.00636873
Heightened Def Con from 0.00636973 to 0.00636974
Heightened Def Con from 0.00638326 to 0.00638326
Heightened Def Con from 0.00640076 to 0.00640076
Heightened Def Con from 0.00640076 to 0.00640076
Heightened Def Con from 0.00640076 to 0.00640076
Heightened Def Con from 0.00640076 to 0.00640076
Heightened Def Con from 0.00641522 to 0.00641522
Heightened Def Con from 0.00641522 to 0.00641522
Heightened Def Con from 0.00641522 to 0.00641522
Heightened Def Con from 0.00641522 to 0.00641522
Heightened Def Con from 0.00641522 to 0.00641522
Heightened Def Con from 0.00641678 to 0.00641678
Heightened Def Con from 0.00641778 to 0.00641778
Heightened Def Con from 0.0064312 to 0.00643121
Heightened Def Con from 0.0064328 to 0.0064328
Heightened Def Con from 0.0064328 +to 0.0064328
Heightened Def Con from 0.0064328 to 0.0064328
Heightened Def Con from 0.0064338 to 0.00643381
Heightened Def Con from 0.00644718 to 0.00644718
Heightened Def Con from 0.00644719 to 0.00644719
Heightened Def Con from 0.00644719 to 0.00644719
Heightened Def Con from 0.00644719 to 0.00644719
Heightened Def Con from 0.00644881 to 0.00644881
Heightened Def Con from 0.00644982 to 0.00644982
Heightened Def Con from 0.00646317 to 0.00646317
Heightened Def Con from 0.00646483 to 0.00646483
Heightened Def Con from 0.00646583 to 0.00646584
Heightened Def Con from 0.00647915 to 0.00647915
Heightened Def Con from 0.00647915 to 0.00647915
Heightened Def Con from 0.00648085 to 0.00648085
Heightened Def Con from 0.00648185 to 0.00648186
Heightened Def Con from 0.00649513 to 0.00649513
Heightened Def Con from 0.00649687 to 0.00649687
Heightened Def Con from 0.00649687 to 0.00649687
Heightened Def Con from 0.00649787 to 0.00649788
Heightened Def Con from 0.00651112 to 0.00651112
Heightened Def Con from 0.00651112 to 0.00651112
Heightened Def Con from 0.00651289 to 0.00651289
Heightened Def Con from 0.00651389 to 0.00651389
Heightened Def Con from 0.0065289 to 0.00652891
Heightened Def Con from 0.00652891 to 0.00652891
Heightened Def Con from 0.00652991 to 0.00652991
Heightened Def Con from 0.00654308 to 0.00654308
Heightened Def Con from 0.00654308 to 0.00654308
Heightened Def Con from 0.00654492 to 0.00654492
Heightened Def Con from 0.00654593 to 0.00654593
Heightened Def Con from 0.00656094 to 0.00656094
Heightened Def Con from 0.00656195 to 0.00656195
Heightened Def Con from 0.00657504 to 0.00657504
Heightened Def Con from 0.00657504 to 0.00657505
Heightened Def Con from 0.00657696 to 0.00657696
Heightened Def Con from 0.00657796 to 0.00657797
Heightened Def Con from 0.00659298 to 0.00659298
Heightened Def Con from 0.00659398 to 0.00659399
Heightened Def Con from 0.006607 to 0.006607
Heightened Def Con from 0.006607 to 0.006607
Heightened Def Con from 0.006609 to 0.006609
Heightened Def Con from 0.00661 to 0.00661001
Heightened Def Con from 0.00662502 +to 0.00662502
Heightened Def Con from 0.00662502 to 0.00662502
Heightened Def Con from 0.00663896 to 0.00663896
Heightened Def Con from 0.00663896 to 0.00663896
Heightened Def Con from 0.00664104 to 0.00664104
Heightened Def Con from 0.00664104 to 0.00664104
Heightened Def Con from 0.00664204 to 0.00664205
Heightened Def Con from 0.00665706 to 0.00665706
Heightened Def Con from 0.00665706 to 0.00665706
Heightened Def Con from 0.00665706 to 0.00665706
Heightened Def Con from 0.00665806 to 0.00665807
Heightened Def Con from 0.00667092 to 0.00667092
Heightened Def Con from 0.00667092 to 0.00667092
Heightened Def Con from 0.00667092 to 0.00667092
Heightened Def Con from 0.00667308 to 0.00667308
Heightened Def Con from 0.00667308 to 0.00667308
Heightened Def Con from 0.00667408 to 0.00667409
Heightened Def Con from 0.0066891 to 0.0066891
Heightened Def Con from 0.0066891 to 0.0066891
Heightened Def Con from 0.0066891 to 0.0066891
Heightened Def Con from 0.0066901 to 0.00669011
Heightened Def Con from 0.00670288 to 0.00670288
Heightened Def Con from 0.00670288 to 0.00670288
Heightened Def Con from 0.00670288 +to 0.00670288
Heightened Def Con from 0.00670288 to 0.00670288
Heightened Def Con from 0.00670288 to 0.00670288
Heightened Def Con from 0.00670512 to 0.00670512
Heightened Def Con from 0.00670612 to 0.00670613
Heightened Def Con from 0.00672114 to 0.00672114
Heightened Def Con from 0.00672114 to 0.00672114
Heightened Def Con from 0.00672114 to 0.00672114
Heightened Def Con from 0.00672214 to 0.00672215
Heightened Def Con from 0.00673484 to 0.00673484
Heightened Def Con from 0.00673716 to 0.00673716
Heightened Def Con from 0.00673816 to 0.00673817
Heightened Def Con from 0.00675082 to 0.00675082
Heightened Def Con from 0.00675087 to 0.00675087
Heightened Def Con from 0.00675318 to 0.00675318
Heightened Def Con from 0.00675318 to 0.00675318
Heightened Def Con from 0.00675418 to 0.00675419
Heightened Def Con from 0.0067668 to 0.0067668
Heightened Def Con from 0.0067668 to 0.0067668
Heightened Def Con from 0.0067692 to 0.0067692
Heightened Def Con from 0.00677021 to 0.00677021
Heightened Def Con from 0.00678523 to 0.00678523
Heightened Def Con from 0.00678523 to 0.00678523
Heightened Def Con from 0.00678623 to 0.00678623
Heightened Def Con from 0.00679876 to 0.00679876
Heightened Def Con from 0.00680125 to 0.00680125
Heightened Def Con from 0.00680225 to 0.00680225
Heightened Def Con from 0.00681727 to 0.00681727
Heightened Def Con from 0.00681827 to 0.00681828
Heightened Def Con from 0.00683071 to 0.00683071
Heightened Def Con from 0.00683071 to 0.00683071
Heightened Def Con from 0.00683071 to 0.00683071
Heightened Def Con from 0.00683071 to 0.00683071
Heightened Def Con from 0.00683329 to 0.00683329
Heightened Def Con from 0.00683429 to 0.0068343
Heightened Def Con from 0.00684931 ++to 0.00684931
Heightened Def Con from 0.00684931 to 0.00684931
Heightened Def Con from 0.00685031 to 0.00685032
Heightened Def Con from 0.00686267 to 0.00686267
Heightened Def Con from 0.00686533 to 0.00686533
Heightened Def Con from 0.00686634 to 0.00686634
Heightened Def Con from 0.00688136 to 0.00688136
Heightened Def Con from 0.00688136 to 0.00688136
Heightened Def Con from 0.00688136 to 0.00688136
Heightened Def Con from 0.00689462 to 0.00689462
Heightened Def Con from 0.00689462 to 0.00689463
Heightened Def Con from 0.00689738 to 0.00689738
Heightened Def Con from 0.00689838 to 0.00689839
Heightened Def Con from 0.0069134 to 0.0069134
Heightened Def Con from 0.0069134 to 0.0069134
Heightened Def Con from 0.0069144 to 0.00691441
Heightened Def Con from 0.00692658 to 0.00692658
Heightened Def Con from 0.00692943 to 0.00692943
Heightened Def Con from 0.00693043 to 0.00693043
Heightened Def Con from 0.00694545 to 0.00694545
Heightened Def Con from 0.00694545 to 0.00694545
Heightened Def Con from 0.00694645 to 0.00694646
Heightened Def Con from 0.00695853 to 0.00695853
Heightened Def Con from 0.00696147 to 0.00696147
Heightened Def Con from 0.00697456 to 0.00697456
Heightened Def Con from 0.00697749 to 0.00697749
Heightened Def Con from 0.00697749 to 0.00697749
Heightened Def Con from 0.0069785 to 0.0069785
Heightened Def Con from 0.00699049 to 0.00699049
Heightened Def Con from 0.00699049 +++to 0.00699049
Heightened Def Con from 0.00699049 to 0.00699049
Heightened Def Con from 0.00699352 to 0.00699352
Heightened Def Con from 0.00699813 to 0.00699813
Heightened Def Con from 0.00700954 to 0.00700954
Heightened Def Con from 0.00701054 to 0.00701055
Heightened Def Con from 0.00702244 to 0.00702244
Heightened Def Con from 0.00702244 to 0.00702244
Heightened Def Con from 0.00702244 to 0.00702244
Heightened Def Con from 0.00702557 to 0.00702557
Heightened Def Con from 0.00703841 to 0.00703842
Heightened Def Con from 0.00703847 to 0.00703847
Heightened Def Con from 0.00704159 to 0.00704159
Heightened Def Con from 0.00704159 to 0.00704159
Heightened Def Con from 0.00705761 to 0.00705762
Heightened Def Con from 0.00705862 to 0.00705862
Heightened Def Con from 0.00707364 to 0.00707364
Heightened Def Con from 0.00707464 to 0.00707465
Heightened Def Con from 0.00708634 to 0.00708634
Heightened Def Con from 0.00708634 to 0.00708634
Heightened Def Con from 0.00708966 to 0.00708966
Heightened Def Con from 0.00709066 to 0.00709067
Heightened Def Con from 0.00710569 to 0.00710569
Heightened Def Con from 0.00710669 to 0.0071067
Heightened Def Con from 0.00711829 to 0.00711829
Heightened Def Con from 0.00712171 to 0.00712171
Heightened Def Con from 0.00712271 to 0.00712272
Heightened Def Con from 0.00713427 to 0.00713427
Heightened Def Con from 0.00713774 to 0.00713774
Heightened Def Con from 0.00715024 to 0.00715024
Heightened Def Con from 0.00715024 to 0.00715024
Heightened Def Con from 0.00715376 to 0.00715376
Heightened Def Con from 0.00715476 to 0.00715477
Heightened Def Con from 0.00716979 to 0.00716979
Heightened Def Con from 0.00716979 to 0.00716979
Heightened Def Con from 0.00716979 to 0.00716979
Heightened Def Con from 0.00716979 to 0.00716979
Heightened Def Con from 0.00717079 to 0.0071708
Heightened Def Con from 0.00718219 to 0.00718219
Heightened Def Con from 0.00718581 to 0.00718581
Heightened Def Con from 0.00718682 to 0.00718682
Heightened Def Con from 0.00720184 to 0.00720184
Heightened Def Con from 0.00720184 to 0.00720184
Heightened Def Con from 0.00720284 to 0.00720285
Heightened Def Con from 0.00721414 to 0.00721414
Heightened Def Con from 0.00721414 to 0.00721414
Heightened Def Con from 0.00721786 to 0.00721786
Heightened Def Con from 0.00721786 to 0.00721786
Heightened Def Con from 0.00721887 to 0.00721887
Heightened Def Con from 0.00723389 to 0.00723389
Heightened Def Con from 0.00723389 to 0.00723389
Heightened Def Con from 0.00723489 to 0.0072349
Heightened Def Con from 0.00724609 to 0.00724609
Heightened Def Con from 0.00725092 to 0.00725092
Heightened Def Con from 0.00726594 to 0.00726594
Heightened Def Con from 0.00726694 to 0.00726695
Heightened Def Con from 0.00727804 +to 0.00727804
Heightened Def Con from 0.00727804 to 0.00727804
Heightened Def Con from 0.00727804 to 0.00727804
Heightened Def Con from 0.00728197 to 0.00728197
Heightened Def Con from 0.00728297 to 0.00728298
Heightened Def Con from 0.007298 to 0.007298
Heightened Def Con from 0.007299 to 0.007299
Heightened Def Con from 0.00730998 to 0.00730998
Heightened Def Con from 0.00731503 to 0.00731503
Heightened Def Con from 0.00732595 to 0.00732595
Heightened Def Con from 0.00733005 to 0.00733005
Heightened Def Con from 0.00733005 to 0.00733005
Heightened Def Con from 0.00733105 to 0.00733106
Heightened Def Con from 0.00734193 to 0.00734193
Heightened Def Con from 0.00734193 to 0.00734193
Heightened Def Con from 0.00734608 to 0.00734608
Heightened Def Con from 0.00734608 to 0.00734608
Heightened Def Con from 0.00734708 to 0.00734708
Heightened Def Con from 0.0073621 to 0.0073621
Heightened Def Con from 0.0073621 to 0.0073621
Heightened Def Con from 0.0073621 to 0.0073621
Heightened Def Con from 0.00736311 to 0.00736311
Heightened Def Con from 0.00737388 to 0.00737388
Heightened Def Con from 0.00737388 to 0.00737388
Heightened Def Con from 0.00737388 to 0.00737388
Heightened Def Con from 0.00737388 to 0.00737388
Heightened Def Con from 0.00737388 to 0.00737388
Heightened Def Con from 0.00737913 to 0.00737914
Heightened Def Con from 0.0073899 to 0.0073899
Heightened Def Con from 0.00739416 to 0.00739416
Heightened Def Con from 0.00739516 to 0.00739517
Heightened Def Con from 0.00740582 to 0.00740582
Heightened Def Con from 0.00740582 to 0.00740582
Heightened Def Con from 0.00740582 to 0.00740582
Heightened Def Con from 0.00740582 to 0.00740582
Heightened Def Con from 0.00740582 to 0.00740582
Heightened Def Con from 0.00741119 to 0.00741119
Heightened Def Con from 0.00742179 to 0.00742179
Heightened Def Con from 0.00742621 to 0.00742621
Heightened Def Con from 0.00742722 to 0.00742722
Heightened Def Con from 0.00743777 to 0.00743777
Heightened Def Con from 0.00743777 to 0.00743777
Heightened Def Con from 0.00744224 to 0.00744224
Heightened Def Con from 0.00744324 to 0.00744325
Heightened Def Con from 0.00745827 to 0.00745827
Heightened Def Con from 0.00745827 to 0.00745827
Heightened Def Con from 0.00745827 to 0.00745827
Heightened Def Con from 0.00745827 to 0.00745827
Heightened Def Con from 0.00745927 to 0.00745928
Heightened Def Con from 0.00746971 to 0.00746971
Heightened Def Con from 0.00746971 to 0.00746971
Heightened Def Con from 0.00746971 to 0.00746971
Heightened Def Con from 0.0074743 to 0.0074743
Heightened Def Con from 0.0074753 to 0.0074753
Heightened Def Con from 0.00749033 to 0.00749033
Heightened Def Con from 0.00749033 to 0.00749033
Heightened Def Con from 0.00749133 to 0.00749134
Heightened Def Con from 0.00750165 to 0.00750165
Heightened Def Con from 0.00750635 to 0.00750635
Heightened Def Con from 0.00750736 to 0.00750736
Heightened Def Con from 0.00752238 to 0.00752238
Heightened Def Con from 0.00752339 to 0.00752339
Heightened Def Con from 0.0075336 to 0.0075336
Heightened Def Con from 0.0075336 +to 0.0075336
Heightened Def Con from 0.0075336 to 0.0075336
Heightened Def Con from 0.0075336 to 0.0075336
Heightened Def Con from 0.0075336 to 0.0075336
Heightened Def Con from 0.00753841 to 0.00753841
Heightened Def Con from 0.00753941 to 0.00753942
Heightened Def Con from 0.00755444 to 0.00755444
Heightened Def Con from 0.00756554 to 0.00756554
Heightened Def Con from 0.00757047 to 0.00757047
Heightened Def Con from 0.00757147 to 0.00757148
Heightened Def Con from 0.00758151 to 0.00758151
Heightened Def Con from 0.0075865 to 0.0075865
Heightened Def Con from 0.0075865 to 0.0075865
Heightened Def Con from 0.0075865 to 0.0075865
Heightened Def Con from 0.0075875 to 0.00758751
Heightened Def Con from 0.00759748 to 0.00759748
Heightened Def Con from 0.00759748 to 0.00759748
Heightened Def Con from 0.00760353 to 0.00760353
Heightened Def Con from 0.00761856 to 0.00761856
Heightened Def Con from 0.00761856 to 0.00761856
Heightened Def Con from 0.00761956 to 0.00761957
Heightened Def Con from 0.00762942 to 0.00762942
Heightened Def Con from 0.00762942 to 0.00762942
Heightened Def Con from 0.00762942 to 0.00762942
Heightened Def Con from 0.00763459 to 0.00763459
Heightened Def Con from 0.00763559 to 0.00763559
Heightened Def Con from 0.00765062 to 0.00765062
Heightened Def Con from 0.00765162 to 0.00765163
Heightened Def Con from 0.00766136 to 0.00766136
Heightened Def Con from 0.00766136 to 0.00766136
Heightened Def Con from 0.00766136 to 0.00766136
Heightened Def Con from 0.00766136 to 0.00766136
Heightened Def Con from 0.00766136 to 0.00766136
Heightened Def Con from 0.00766665 to 0.00766665
Heightened Def Con from 0.00766765 to 0.00766765
Heightened Def Con from 0.00768268 to 0.00768268
Heightened Def Con from 0.00768368 to 0.00768369
Heightened Def Con from 0.0076933 to 0.0076933
Heightened Def Con from 0.00769871 to 0.00769871
Heightened Def Con from 0.00769971 to 0.00769971
Heightened Def Con from 0.00771474 to 0.00771474
Heightened Def Con from 0.00771574 to 0.00771575
Heightened Def Con from 0.00772524 to 0.00772524
Heightened Def Con from 0.00772524 to 0.00772524
Heightened Def Con from 0.00772524 to 0.00772524
Heightened Def Con from 0.00773177 to 0.00773177
Heightened Def Con from 0.0077468 to 0.0077468
Heightened Def Con from 0.0077478 to 0.00774781
Heightened Def Con from 0.00775718 to 0.00775718
Heightened Def Con from 0.00775718 to 0.00775718
Heightened Def Con from 0.00775718 to 0.00775718
Heightened Def Con from 0.00775718 to 0.00775718
Heightened Def Con from 0.00775718 to 0.00775719
Heightened Def Con from 0.00776283 to 0.00776283
Heightened Def Con from 0.00776383 to 0.00776383
Heightened Def Con from 0.00777886 to 0.00777886
Heightened Def Con from 0.00777986 to 0.00777987
Heightened Def Con from 0.00778912 to 0.00778912
Heightened Def Con from 0.00779489 to 0.00779489
Heightened Def Con from 0.00779589 to 0.0077959
Heightened Def Con from 0.00781092 to 0.00781092
Heightened Def Con from 0.00781092 to 0.00781092
Heightened Def Con from 0.00781192 to 0.00781193
Heightened Def Con from 0.00782106 to 0.00782106
Heightened Def Con from 0.00782106 to 0.00782106
Heightened Def Con from 0.00782695 to 0.00782695
Heightened Def Con from 0.00782795 to 0.00782796
Heightened Def Con from 0.00784298 to 0.00784298
Heightened Def Con from 0.00784398 to 0.00784399
Heightened Def Con from 0.007853 to 0.007853
Heightened Def Con from 0.00785902 to 0.00785902
Heightened Def Con from 0.00786002 to 0.00786002
Heightened Def Con from 0.00787505 to 0.00787505
Heightened Def Con from 0.00787605 to 0.00787606
Heightened Def Con from 0.00788492 to 0.00788492
Heightened Def Con from 0.00788493 to 0.00788493
Heightened Def Con from 0.00789108 to 0.00789108
Heightened Def Con from 0.00789208 to 0.00789208
Heightened Def Con from 0.00790711 to 0.00790711
Heightened Def Con from 0.00790811 to 0.00790812
Heightened Def Con from 0.00791687 to 0.00791687
Heightened Def Con from 0.00791687 to 0.00791687
Heightened Def Con from 0.00792314 to 0.00792314
Heightened Def Con from 0.00793917 to 0.00793917
Heightened Def Con from 0.00793917 to 0.00793918
Heightened Def Con from 0.00794018 to 0.00794018
Heightened Def Con from 0.0079488 to 0.00794881
Heightened Def Con from 0.00794881 to 0.00794881
Heightened Def Con from 0.00795521 to 0.00795521
Heightened Def Con from 0.00795621 to 0.00795621
Heightened Def Con from 0.00797124 to 0.00797124
Heightened Def Con from 0.00797124 to 0.00797124
Heightened Def Con from 0.00797124 to 0.00797124
Heightened Def Con from 0.00797224 to 0.00797225
Heightened Def Con from 0.00798074 to 0.00798074
Heightened Def Con from 0.00798074 to 0.00798074
Heightened Def Con from 0.00798727 to 0.00798727
Heightened Def Con from 0.00799671 to 0.00799671
Heightened Def Con from 0.00799671 to 0.00799671
Heightened Def Con from 0.0079992 to 0.0079992
Heightened Def Con from 0.00799971 to 0.00799971
Heightened Def Con from 0.00799999 to 0.008
Heightened Def Con from 0.008 to 0.008
Heightened Def Con from 0.0080033 to 0.0080033
Heightened Def Con from 0.00800431 to 0.00800431
Heightened Def Con from 0.00801268 to 0.00801268
Heightened Def Con from 0.00801934 to 0.00801934
Heightened Def Con from 0.00802034 to 0.00802034
Heightened Def Con from 0.00803537 to 0.00803537
Heightened Def Con from 0.00803537 to 0.00803537
Heightened Def Con from 0.00803537 to 0.00803537
Heightened Def Con from 0.00803637 to 0.00803638
Heightened Def Con from 0.00804461 to 0.00804461
Heightened Def Con from 0.0080514 to 0.0080514
Heightened Def Con from 0.0080514 to 0.0080514
Heightened Def Con from 0.0080524 to 0.00805241
Heightened Def Con from 0.00806743 +++to 0.00806743
Heightened Def Con from 0.00806744 to 0.00806744
Heightened Def Con from 0.00806844 to 0.00806845
Heightened Def Con from 0.00807654 to 0.00807654
Heightened Def Con from 0.00807655 to 0.00807655
Heightened Def Con from 0.00807655 to 0.00807655
Heightened Def Con from 0.00807655 to 0.00807655
Heightened Def Con from 0.00808347 to 0.00808347
Heightened Def Con from 0.0080995 to 0.0080995
Heightened Def Con from 0.0081005 to 0.00810051
Heightened Def Con from 0.00810848 to 0.00810848
Heightened Def Con from 0.00810848 to 0.00810848
Heightened Def Con from 0.00811554 to 0.00811554
Heightened Def Con from 0.00813157 +to 0.00813157
Heightened Def Con from 0.00813157 to 0.00813157
Heightened Def Con from 0.00813157 to 0.00813157
Heightened Def Con from 0.00813257 to 0.00813258
Heightened Def Con from 0.00814041 +to 0.00814041
Heightened Def Con from 0.00814041 to 0.00814041
Heightened Def Con from 0.0081476 to 0.0081476
Heightened Def Con from 0.00816364 to 0.00816364
Heightened Def Con from 0.00816464 to 0.00816465
Heightened Def Con from 0.00817235 to 0.00817235
Heightened Def Con from 0.00817967 to 0.00817967
Heightened Def Con from 0.00818067 to 0.00818068
Heightened Def Con from 0.00818831 to 0.00818831
Heightened Def Con from 0.0081957 to 0.0081957
Heightened Def Con from 0.0081957 to 0.0081957
Heightened Def Con from 0.0081957 to 0.0081957
Heightened Def Con from 0.00819671 to 0.00819671
Heightened Def Con from 0.00820428 to 0.00820428
Heightened Def Con from 0.00821174 to 0.00821174
Heightened Def Con from 0.00821274 to 0.00821274
Heightened Def Con from 0.00822024 to 0.00822025
Heightened Def Con from 0.00822125 to 0.00822125
Heightened Def Con from 0.00822777 to 0.00822777
Heightened Def Con from 0.00822777 to 0.00822777
Heightened Def Con from 0.00822777 to 0.00822777
Heightened Def Con from 0.00822877 to 0.00822878
Heightened Def Con from 0.00823621 to 0.00823621
Heightened Def Con from 0.00823621 to 0.00823621
Heightened Def Con from 0.00823621 to 0.00823621
Heightened Def Con from 0.00824381 to 0.00824381
Heightened Def Con from 0.00824481 to 0.00824481
Heightened Def Con from 0.00825217 to 0.00825218
Heightened Def Con from 0.00825984 to 0.00825984
Heightened Def Con from 0.00825984 to 0.00825984
Heightened Def Con from 0.00826084 to 0.00826085
Heightened Def Con from 0.00826814 to 0.00826814
Heightened Def Con from 0.00826814 +to 0.00826814
Heightened Def Con from 0.00826814 to 0.00826814
Heightened Def Con from 0.00826814 +to 0.00826814
Heightened Def Con from 0.00826814 to 0.00826814
Heightened Def Con from 0.00827588 to 0.00827588
Heightened Def Con from 0.00827688 to 0.00827688
Heightened Def Con from 0.00828416 to 0.00828416
Heightened Def Con from 0.00829191 to 0.00829191
Heightened Def Con from 0.00829191 to 0.00829191
Heightened Def Con from 0.00829291 to 0.00829292
Heightened Def Con from 0.00830007 to 0.00830007
Heightened Def Con from 0.00830794 to 0.00830794
Heightened Def Con from 0.00830895 to 0.00830895
Heightened Def Con from 0.00831704 to 0.00831704
Heightened Def Con from 0.00832398 to 0.00832398
Heightened Def Con from 0.00832398 to 0.00832398
Heightened Def Con from 0.00832498 to 0.00832499
Heightened Def Con from 0.008332 to 0.008332
Heightened Def Con from 0.008332 to 0.008332
Heightened Def Con from 0.00834001 to 0.00834001
Heightened Def Con from 0.00834102 to 0.00834102
Heightened Def Con from 0.00834897 to 0.00834897
Heightened Def Con from 0.00835605 to 0.00835605
Heightened Def Con from 0.00835605 to 0.00835605
Heightened Def Con from 0.00835705 to 0.00835706
Heightened Def Con from 0.00836393 to 0.00836393
Heightened Def Con from 0.00837208 to 0.00837208
Heightened Def Con from 0.00837309 to 0.00837309
Heightened Def Con from 0.0083799 to 0.0083799
Heightened Def Con from 0.0083809 to 0.0083809
Heightened Def Con from 0.00838812 to 0.00838812
[...]
Heightened Def Con from 0.0383011 to 0.0383011
Heightened Def Con from 0.0383079 to 0.0383079
Heightened Def Con from 0.0383089 to 0.038309
Heightened Def Con from 0.038316 to 0.038316
Heightened Def Con from 0.038325 to 0.038325
Heightened Def Con from 0.038332 to 0.038332
Heightened Def Con from 0.038332 to 0.038332
Heightened Def Con from 0.038332 to 0.038332
Heightened Def Con from 0.038332 to 0.038332
Heightened Def Con from 0.038333 to 0.038333
Heightened Def Con from 0.03834 to 0.03834
Heightened Def Con from 0.038341 to 0.038341
Heightened Def Con from 0.038348 to 0.038348
Heightened Def Con from 0.038348 to 0.038348
Heightened Def Con from 0.0383571 to 0.0383571
Heightened Def Con from 0.0383639 to 0.0383639
Heightened Def Con from 0.0383639 to 0.0383639
Heightened Def Con from 0.0383649 to 0.0383649
Heightened Def Con from 0.0383721 to 0.0383721
Heightened Def Con from 0.0383731 to 0.0383731
Heightened Def Con from 0.0383799 to 0.0383799
Heightened Def Con from 0.0383799 to 0.0383799
Heightened Def Con from 0.0383891 to 0.0383891
Heightened Def Con from 0.0383959 to 0.0383959
Heightened Def Con from 0.0383959 to 0.0383959
Heightened Def Con from 0.0383959 to 0.0383959
Heightened Def Con from 0.0383959 to 0.0383959
Heightened Def Con from 0.0384042 to 0.0384042
Heightened Def Con from 0.0384042 to 0.0384042
Heightened Def Con from 0.0384052 to 0.0384052
Heightened Def Con from 0.0384118 +to 0.0384118
Heightened Def Con from 0.0384118 ++++to 0.0384118
Heightened Def Con from 0.0384118 to 0.0384118
Heightened Def Con from 0.0384278 to 0.0384278
Heightened Def Con from 0.0384278 to 0.0384278
Heightened Def Con from 0.0384362 to 0.0384362
Heightened Def Con from 0.0384372 to 0.0384372
Heightened Def Con from 0.0384438 to 0.0384438
Heightened Def Con from 0.0384438 to 0.0384438
Heightened Def Con from 0.0384533 to 0.0384533
Heightened Def Con from 0.0384597 to 0.0384597
Heightened Def Con from 0.0384597 to 0.0384597
Heightened Def Con from 0.0384597 to 0.0384597
Heightened Def Con from 0.0384597 to 0.0384597
Heightened Def Con from 0.0384597 to 0.0384597
Heightened Def Con from 0.0384683 to 0.0384683
Heightened Def Con from 0.0384683 to 0.0384683
Heightened Def Con from 0.0384693 to 0.0384693
Heightened Def Con from 0.0384757 to 0.0384757
Heightened Def Con from 0.0384757 to 0.0384757
Heightened Def Con from 0.0384853 to 0.0384853
Heightened Def Con from 0.0384916 to 0.0384916
Heightened Def Con from 0.0384917 to 0.0384917
Heightened Def Con from 0.0384917 to 0.0384917
Heightened Def Con from 0.0384917 to 0.0384917
Heightened Def Con from 0.0384917 to 0.0384917
Heightened Def Con from 0.0385004 to 0.0385004
Heightened Def Con from 0.0385014 to 0.0385014
Heightened Def Con from 0.0385076 to 0.0385076
Heightened Def Con from 0.0385076 to 0.0385076
Heightened Def Con from 0.0385174 to 0.0385174
Heightened Def Con from 0.0385236 to 0.0385236
Heightened Def Con from 0.0385236 to 0.0385236
Heightened Def Con from 0.0385324 to 0.0385324
Heightened Def Con from 0.0385324 to 0.0385324
Heightened Def Con from 0.0385334 to 0.0385335
Heightened Def Con from 0.0385395 to 0.0385395
Heightened Def Con from 0.0385495 to 0.0385495
Heightened Def Con from 0.0385555 +to 0.0385555
Heightened Def Con from 0.0385555 to 0.0385555
Heightened Def Con from 0.0385555 to 0.0385555
Heightened Def Con from 0.0385645 to 0.0385645
Heightened Def Con from 0.0385645 to 0.0385645
Heightened Def Con from 0.0385645 to 0.0385645
Heightened Def Con from 0.0385655 to 0.0385655
Heightened Def Con from 0.0385715 to 0.0385715
Heightened Def Con from 0.0385715 to 0.0385715
Heightened Def Con from 0.0385816 to 0.0385816
Heightened Def Con from 0.0385874 to 0.0385874
Heightened Def Con from 0.0385966 to 0.0385966
Heightened Def Con from 0.0385976 to 0.0385976
Heightened Def Con from 0.0386034 to 0.0386034
Heightened Def Con from 0.0386034 to 0.0386034
Heightened Def Con from 0.0386136 to 0.0386136
Heightened Def Con from 0.0386194 to 0.0386194
Heightened Def Con from 0.0386194 to 0.0386194
Heightened Def Con from 0.0386287 to 0.0386287
Heightened Def Con from 0.0386287 to 0.0386287
Heightened Def Con from 0.0386287 to 0.0386287
Heightened Def Con from 0.0386297 to 0.0386297
Heightened Def Con from 0.0386353 to 0.0386353
Heightened Def Con from 0.0386353 to 0.0386353
Heightened Def Con from 0.0386353 to 0.0386353
Heightened Def Con from 0.0386353 to 0.0386353
Heightened Def Con from 0.0386353 to 0.0386353
Heightened Def Con from 0.0386513 to 0.0386513
Heightened Def Con from 0.0386513 to 0.0386513
Heightened Def Con from 0.0386513 to 0.0386513
Heightened Def Con from 0.0386607 to 0.0386607
Heightened Def Con from 0.0386617 to 0.0386617
Heightened Def Con from 0.0386673 to 0.0386673
Heightened Def Con from 0.0386778 to 0.0386778
Heightened Def Con from 0.0386832 +to 0.0386832
Heightened Def Con from 0.0386928 to 0.0386928
Heightened Def Con from 0.0386938 to 0.0386938
Heightened Def Con from 0.0386992 to 0.0386992
Heightened Def Con from 0.0387098 to 0.0387098
Heightened Def Con from 0.0387151 to 0.0387151
Heightened Def Con from 0.0387151 to 0.0387151
Heightened Def Con from 0.0387249 to 0.0387249
Heightened Def Con from 0.0387259 to 0.0387259
Heightened Def Con from 0.0387311 to 0.0387311
Heightened Def Con from 0.0387311 to 0.0387311
Heightened Def Con from 0.0387419 to 0.0387419
Heightened Def Con from 0.0387471 to 0.0387471
Heightened Def Con from 0.0387471 to 0.0387471
Heightened Def Con from 0.038757 to 0.038757
Heightened Def Con from 0.038757 to 0.038757
Heightened Def Con from 0.038758 to 0.038758
Heightened Def Con from 0.038763 to 0.038763
Heightened Def Con from 0.038763 to 0.038763
Heightened Def Con from 0.038763 to 0.038763
Heightened Def Con from 0.038774 to 0.038774
Heightened Def Con from 0.038779 to 0.038779
Heightened Def Con from 0.038779 to 0.038779
Heightened Def Con from 0.038789 to 0.038789
Heightened Def Con from 0.03879 to 0.03879
Heightened Def Con from 0.038795 to 0.038795
Heightened Def Con from 0.038795 to 0.038795
Heightened Def Con from 0.0388061 to 0.0388061
Heightened Def Con from 0.0388109 to 0.0388109
Heightened Def Con from 0.0388211 to 0.0388211
Heightened Def Con from 0.0388221 to 0.0388221
Heightened Def Con from 0.0388269 to 0.0388269
Heightened Def Con from 0.0388269 to 0.0388269
Heightened Def Con from 0.0388269 to 0.0388269
Heightened Def Con from 0.0388428 to 0.0388428
Heightened Def Con from 0.0388429 to 0.0388429
Heightened Def Con from 0.0388532 to 0.0388532
Heightened Def Con from 0.0388532 to 0.0388532
Heightened Def Con from 0.0388542 to 0.0388542
Heightened Def Con from 0.0388588 to 0.0388588
Heightened Def Con from 0.0388588 to 0.0388588
Heightened Def Con from 0.0388588 to 0.0388588
Heightened Def Con from 0.0388702 to 0.0388702
Heightened Def Con from 0.0388748 to 0.0388748
Heightened Def Con from 0.0388853 to 0.0388853
Heightened Def Con from 0.0388863 to 0.0388863
Heightened Def Con from 0.0388907 to 0.0388907
Heightened Def Con from 0.0388907 to 0.0388907
Heightened Def Con from 0.0388907 to 0.0388907
Heightened Def Con from 0.0388907 to 0.0388907
Heightened Def Con from 0.0388907 to 0.0388907
Heightened Def Con from 0.0389023 to 0.0389023
Heightened Def Con from 0.0389067 +to 0.0389067
Heightened Def Con from 0.0389067 to 0.0389067
Heightened Def Con from 0.0389067 to 0.0389067
Heightened Def Con from 0.0389173 to 0.0389173
Heightened Def Con from 0.0389173 to 0.0389173
Heightened Def Con from 0.0389183 to 0.0389183
Heightened Def Con from 0.0389227 to 0.0389227
Heightened Def Con from 0.0389344 to 0.0389344
Heightened Def Con from 0.0389386 to 0.0389386
Heightened Def Con from 0.0389386 to 0.0389386
Heightened Def Con from 0.0389494 to 0.0389494
Heightened Def Con from 0.0389504 to 0.0389504
Heightened Def Con from 0.0389546 to 0.0389546
Heightened Def Con from 0.0389664 to 0.0389665
Heightened Def Con from 0.0389705 to 0.0389705
Heightened Def Con from 0.0389705 to 0.0389705
Heightened Def Con from 0.0389705 to 0.0389705
Heightened Def Con from 0.0389705 to 0.0389705
Heightened Def Con from 0.0389815 to 0.0389815
Heightened Def Con from 0.0389825 to 0.0389825
Heightened Def Con from 0.0389865 to 0.0389865
Heightened Def Con from 0.0389865 to 0.0389865
Heightened Def Con from 0.0389865 to 0.0389865
Heightened Def Con from 0.0389865 to 0.0389865
Heightened Def Con from 0.0389865 to 0.0389865
Heightened Def Con from 0.0389985 to 0.0389985
Heightened Def Con from 0.0390025 to 0.0390025
Heightened Def Con from 0.0390025 to 0.0390025
Heightened Def Con from 0.0390136 to 0.0390136
Heightened Def Con from 0.0390146 to 0.0390146
Heightened Def Con from 0.0390184 to 0.0390184
Heightened Def Con from 0.0390344 to 0.0390344
Heightened Def Con from 0.0390344 to 0.0390344
Heightened Def Con from 0.0390344 to 0.0390344
Heightened Def Con from 0.0390344 to 0.0390344
Heightened Def Con from 0.0390456 to 0.0390456
Heightened Def Con from 0.0390466 to 0.0390466
Heightened Def Con from 0.0390504 ++to 0.0390504
Heightened Def Con from 0.0390504 to 0.0390504
Heightened Def Con from 0.0390504 to 0.0390504
Heightened Def Con from 0.0390627 to 0.0390627
Heightened Def Con from 0.0390663 to 0.0390663
Heightened Def Con from 0.0390663 to 0.0390663
Heightened Def Con from 0.0390663 to 0.0390663
Heightened Def Con from 0.0390777 to 0.0390777
Heightened Def Con from 0.0390777 to 0.0390777
Heightened Def Con from 0.0390787 to 0.0390787
Heightened Def Con from 0.0390823 to 0.0390823
Heightened Def Con from 0.0390823 to 0.0390823
Heightened Def Con from 0.0390823 to 0.0390823
Heightened Def Con from 0.0390823 to 0.0390823
Heightened Def Con from 0.0390823 to 0.0390823
Heightened Def Con from 0.0390948 to 0.0390948
Heightened Def Con from 0.0390982 to 0.0390982
Heightened Def Con from 0.0390982 to 0.0390982
Heightened Def Con from 0.0390983 to 0.0390983
Heightened Def Con from 0.0391098 to 0.0391098
Heightened Def Con from 0.0391108 to 0.0391108
Heightened Def Con from 0.0391142 to 0.0391142
Heightened Def Con from 0.0391142 to 0.0391142
Heightened Def Con from 0.0391268 to 0.0391268
Heightened Def Con from 0.0391302 to 0.0391302
Heightened Def Con from 0.0391302 to 0.0391302
Heightened Def Con from 0.0391419 to 0.0391419
Heightened Def Con from 0.0391419 to 0.0391419
Heightened Def Con from 0.0391429 to 0.0391429
Heightened Def Con from 0.0391461 to 0.0391461
Heightened Def Con from 0.0391621 ++to 0.0391621
Heightened Def Con from 0.0391621 to 0.0391621
Heightened Def Con from 0.0391621 to 0.0391621
Heightened Def Con from 0.0391621 to 0.0391621
Heightened Def Con from 0.0391739 to 0.0391739
Heightened Def Con from 0.0391749 to 0.039175
Heightened Def Con from 0.039178 to 0.039178
Heightened Def Con from 0.039178 to 0.039178
Heightened Def Con from 0.039178 to 0.039178
Heightened Def Con from 0.039191 to 0.039191
Heightened Def Con from 0.039194 to 0.039194
Heightened Def Con from 0.039194 to 0.039194
Heightened Def Con from 0.039206 to 0.039206
Heightened Def Con from 0.039206 to 0.039206
Heightened Def Con from 0.039207 to 0.039207
Heightened Def Con from 0.03921 to 0.03921
Heightened Def Con from 0.03921 to 0.03921
Heightened Def Con from 0.0392259 to 0.0392259
Heightened Def Con from 0.0392259 to 0.0392259
Heightened Def Con from 0.0392259 to 0.0392259
Heightened Def Con from 0.0392381 to 0.0392381
Heightened Def Con from 0.0392391 to 0.0392391
Heightened Def Con from 0.0392419 to 0.0392419
Heightened Def Con from 0.0392419 to 0.0392419
Heightened Def Con from 0.0392419 to 0.0392419
Heightened Def Con from 0.0392551 to 0.0392551
Heightened Def Con from 0.0392578 to 0.0392578
Heightened Def Con from 0.0392578 to 0.0392578
Heightened Def Con from 0.0392579 to 0.0392579
Heightened Def Con from 0.0392702 to 0.0392702
Heightened Def Con from 0.0392712 to 0.0392712
Heightened Def Con from 0.0392738 to 0.0392738
Heightened Def Con from 0.0392898 to 0.0392898
Heightened Def Con from 0.0393023 to 0.0393023
Heightened Def Con from 0.0393023 to 0.0393023
Heightened Def Con from 0.0393033 to 0.0393033
Heightened Def Con from 0.0393057 to 0.0393057
Heightened Def Con from 0.0393057 to 0.0393057
Heightened Def Con from 0.0393193 to 0.0393193
Heightened Def Con from 0.0393217 to 0.0393217
Heightened Def Con from 0.0393217 to 0.0393217
Heightened Def Con from 0.0393343 to 0.0393343
Heightened Def Con from 0.0393343 to 0.0393343
Heightened Def Con from 0.0393353 to 0.0393353
Heightened Def Con from 0.0393377 to 0.0393377
Heightened Def Con from 0.0393514 to 0.0393514
Heightened Def Con from 0.0393536 to 0.0393536
Heightened Def Con from 0.0393536 to 0.0393536
Heightened Def Con from 0.0393536 to 0.0393536
Heightened Def Con from 0.0393664 to 0.0393664
Heightened Def Con from 0.0393664 to 0.0393664
Heightened Def Con from 0.0393674 to 0.0393674
Heightened Def Con from 0.0393696 to 0.0393696
Heightened Def Con from 0.0393696 to 0.0393696
Heightened Def Con from 0.0393835 to 0.0393835
Heightened Def Con from 0.0393855 to 0.0393855
Heightened Def Con from 0.0393985 to 0.0393985
Heightened Def Con from 0.0393995 to 0.0393995
Heightened Def Con from 0.0394015 to 0.0394015
Heightened Def Con from 0.0394015 to 0.0394015
Heightened Def Con from 0.0394155 to 0.0394155
Heightened Def Con from 0.0394175 to 0.0394175
Heightened Def Con from 0.0394175 to 0.0394175
Heightened Def Con from 0.0394306 to 0.0394306
Heightened Def Con from 0.0394306 to 0.0394306
Heightened Def Con from 0.0394316 to 0.0394316
Heightened Def Con from 0.0394334 to 0.0394334
Heightened Def Con from 0.0394494 to 0.0394494
Heightened Def Con from 0.0394494 to 0.0394494
Heightened Def Con from 0.0394627 to 0.0394627
Heightened Def Con from 0.0394637 to 0.0394637
Heightened Def Con from 0.0394653 to 0.0394653
Heightened Def Con from 0.0394653 to 0.0394653
Heightened Def Con from 0.0394797 to 0.0394797
Heightened Def Con from 0.0394813 to 0.0394813
Heightened Def Con from 0.0394813 to 0.0394813
Heightened Def Con from 0.0394813 to 0.0394813
Heightened Def Con from 0.0394947 to 0.0394947
Heightened Def Con from 0.0394947 to 0.0394947
Heightened Def Con from 0.0394957 to 0.0394957
Heightened Def Con from 0.0394973 to 0.0394973
Heightened Def Con from 0.0394973 to 0.0394973
Heightened Def Con from 0.0395132 to 0.0395132
Heightened Def Con from 0.0395132 to 0.0395132
Heightened Def Con from 0.0395132 to 0.0395132
Heightened Def Con from 0.0395142 to 0.0395142
Heightened Def Con from 0.0395268 to 0.0395268
Heightened Def Con from 0.0395278 to 0.0395278
Heightened Def Con from 0.0395292 to 0.0395292
Heightened Def Con from 0.0395292 to 0.0395292
Heightened Def Con from 0.0395451 to 0.0395451
Heightened Def Con from 0.0395451 to 0.0395451
Heightened Def Con from 0.0395589 to 0.0395589
Heightened Def Con from 0.0395589 to 0.0395589
Heightened Def Con from 0.0395599 to 0.0395599
Heightened Def Con from 0.0395611 to 0.0395611
Heightened Def Con from 0.0395759 to 0.0395759
Heightened Def Con from 0.0395771 to 0.0395771
Heightened Def Con from 0.039591 to 0.039591
Heightened Def Con from 0.039592 to 0.039592
Heightened Def Con from 0.039593 to 0.039593
Heightened Def Con from 0.039608 to 0.039608
Heightened Def Con from 0.039609 to 0.039609
Heightened Def Con from 0.039609 to 0.039609
Heightened Def Con from 0.039609 +to 0.039609
Heightened Def Con from 0.039609 to 0.039609
Heightened Def Con from 0.03961 to 0.03961
Heightened Def Con from 0.0396231 to 0.0396231
Heightened Def Con from 0.0396241 to 0.0396241
Heightened Def Con from 0.0396249 to 0.0396249
Heightened Def Con from 0.0396249 to 0.0396249
Heightened Def Con from 0.0396401 to 0.0396401
Heightened Def Con from 0.0396409 to 0.0396409
Heightened Def Con from 0.0396409 to 0.0396409
Heightened Def Con from 0.0396409 to 0.0396409
Heightened Def Con from 0.0396551 to 0.0396551
Heightened Def Con from 0.0396551 to 0.0396551
Heightened Def Con from 0.0396561 to 0.0396561
Heightened Def Con from 0.0396569 to 0.0396569
Heightened Def Con from 0.0396722 to 0.0396722
Heightened Def Con from 0.0396728 to 0.0396728
Heightened Def Con from 0.0396872 to 0.0396872
Heightened Def Con from 0.0396882 to 0.0396882
Heightened Def Con from 0.0396888 to 0.0396888
Heightened Def Con from 0.0396888 to 0.0396888
Heightened Def Con from 0.0397033 to 0.0397033
Heightened Def Con from 0.0397047 to 0.0397047
Heightened Def Con from 0.0397047 to 0.0397047
Heightened Def Con from 0.0397193 to 0.0397193
Heightened Def Con from 0.0397193 to 0.0397193
Heightened Def Con from 0.0397193 to 0.0397193
Heightened Def Con from 0.0397203 to 0.0397203
Heightened Def Con from 0.0397207 to 0.0397207
Heightened Def Con from 0.0397207 to 0.0397207
Heightened Def Con from 0.0397367 to 0.0397367
Heightened Def Con from 0.0397367 to 0.0397367
Heightened Def Con from 0.0397367 to 0.0397367
Heightened Def Con from 0.0397367 to 0.0397367
Heightened Def Con from 0.03975 to 0.03975
Heightened Def Con from 0.0397514 to 0.0397514
Heightened Def Con from 0.0397514 to 0.0397514
Heightened Def Con from 0.0397524 to 0.0397524
Heightened Def Con from 0.0397526 to 0.0397526
Heightened Def Con from 0.0397674 to 0.0397674
Heightened Def Con from 0.0397686 to 0.0397686
Heightened Def Con from 0.0397835 to 0.0397835
Heightened Def Con from 0.0397835 to 0.0397835
Heightened Def Con from 0.0397835 to 0.0397835
Heightened Def Con from 0.0397845 to 0.0397845
Heightened Def Con from 0.0397845 to 0.0397845
Heightened Def Con from 0.0398005 to 0.0398005
Heightened Def Con from 0.0398005 to 0.0398005
Heightened Def Con from 0.0398155 to 0.0398155
Heightened Def Con from 0.0398155 to 0.0398155
Heightened Def Con from 0.0398155 to 0.0398155
Heightened Def Con from 0.0398165 to 0.0398165
Heightened Def Con from 0.0398165 to 0.0398165
Heightened Def Con from 0.0398324 to 0.0398324
Heightened Def Con from 0.0398326 to 0.0398326
Heightened Def Con from 0.0398334 to 0.0398334
Heightened Def Con from 0.0398476 to 0.0398476
Heightened Def Con from 0.0398476 to 0.0398476
Heightened Def Con from 0.0398476 to 0.0398476
Heightened Def Con from 0.0398476 to 0.0398476
Heightened Def Con from 0.0398484 +to 0.0398484
Heightened Def Con from 0.0398484 to 0.0398484
Heightened Def Con from 0.0398486 to 0.0398486
Heightened Def Con from 0.0398643 to 0.0398643
Heightened Def Con from 0.0398647 to 0.0398647
Heightened Def Con from 0.0398653 to 0.0398653
Heightened Def Con from 0.0398797 to 0.0398797
Heightened Def Con from 0.0398803 to 0.0398803
Heightened Def Con from 0.0398803 to 0.0398803
Heightened Def Con from 0.0398807 to 0.0398807
Heightened Def Con from 0.0398957 to 0.0398957
Heightened Def Con from 0.0398963 to 0.0398963
Heightened Def Con from 0.0398967 to 0.0398967
Heightened Def Con from 0.0399118 to 0.0399118
Heightened Def Con from 0.0399118 to 0.0399118
Heightened Def Con from 0.0399118 to 0.0399118
Heightened Def Con from 0.0399122 to 0.0399122
Heightened Def Con from 0.0399128 to 0.0399128
Heightened Def Con from 0.0399282 to 0.0399282
Heightened Def Con from 0.0399292 to 0.0399292
Heightened Def Con from 0.0399439 to 0.0399439
Heightened Def Con from 0.0399439 to 0.0399439
Heightened Def Con from 0.0399441 to 0.0399441
Heightened Def Con from 0.0399449 to 0.0399449
Heightened Def Con from 0.0399599 to 0.0399599
Heightened Def Con from 0.0399601 to 0.0399601
Heightened Def Con from 0.0399609 to 0.0399609
Heightened Def Con from 0.0399759 to 0.0399759
Heightened Def Con from 0.0399761 to 0.0399761
Heightened Def Con from 0.0399761 to 0.0399761
Heightened Def Con from 0.0399769 to 0.0399769
Heightened Def Con from 0.039992 to 0.039992
Heightened Def Con from 0.039992 to 0.039992
Heightened Def Con from 0.039993 to 0.039993

Date: Tue Apr 08 15:48:15 2025
Total elapsed time: 56.735 seconds.

tnom = 27
temp = 27
method = modified trap
totiter = 5763150
traniter = 5763105
tranpoints = 1212172
accept = 865574
rejected = 355837
matrix size = 86
fillins = 47
solver = Normal
Matrix Compiler1:     387 opcodes  1.0/[0.4]/0.4
Matrix Compiler2: 6.56 KB object code size  0.4/0.5/[0.3]

